geometry optimzed in LAMMPS
_audit_creation_date              2020-11-30 
_audit_creation_method            'lammps2cif' 
_symmetry_space_group_name_H-M    'P1' 
_symmetry_Int_Tables_number       1 
_symmetry_cell_setting            triclinic 
loop_ 
_symmetry_equiv_pos_as_xyz 
  x,y,z 
_cell_length_a                    35.24248204 
_cell_length_b                    35.165820724206554 
_cell_length_c                    86.82030863260354 
_cell_angle_alpha                 90.01227945780978 
_cell_angle_beta                  90.0373320695058 
_cell_angle_gamma                 120.23811319471643 
loop_ 
_atom_site_label 
_atom_site_type_symbol 
_atom_site_fract_x 
_atom_site_fract_y 
_atom_site_fract_z 
_atom_site_charge 
C1          C  0.66523868  0.08955761  0.71731677     0.80700
N2          N  0.63053138  0.04858472  0.71501396    -0.77600
C3          C  0.62877831  0.02461586  0.70249340     0.83200
N4          N  0.66275743  0.04164687  0.69240448    -0.77500
C5          C  0.69779062  0.08258224  0.69457592     0.83300
N6          N  0.69899122  0.10660769  0.70708173    -0.79200
C7          C  0.76978077  0.09143369  0.66195613     0.80700
N8          N  0.73439730  0.07571974  0.67146710    -0.77600
C9          C  0.73495858  0.09995230  0.68379050     0.83200
N10         N  0.77103486  0.13969332  0.68655317    -0.77500
C11         C  0.80678909  0.15550366  0.67730980     0.83300
N12         N  0.80570955  0.13134515  0.66490465    -0.79200
C13         C  0.51723942  0.76589403  0.83044116     0.80700
N14         N  0.53331279  0.74713018  0.84017293    -0.77600
C15         C  0.55506516  0.76865761  0.85318805     0.83200
N16         N  0.55972289  0.80861062  0.85656621    -0.77500
C17         C  0.54287095  0.82698419  0.84699466     0.83300
N18         N  0.52200258  0.80561165  0.83392283    -0.79200
C19         C  0.61234283  0.75276989  0.88619961     0.80700
N20         N  0.59549730  0.77080112  0.87649857    -0.77600
C21         C  0.57312513  0.74872007  0.86365163     0.83200
N22         N  0.56752772  0.70820831  0.86056974    -0.77500
C23         C  0.58423471  0.68979603  0.87024464     0.83300
N24         N  0.60597453  0.71221588  0.88302373    -0.79200
C25         C  0.85440419  0.42886237  0.49510574     0.80700
N26         N  0.87607651  0.41317573  0.50363410    -0.77600
C27         C  0.90071214  0.43658386  0.51601254     0.83200
N28         N  0.90317160  0.47530344  0.51980783    -0.77500
C29         C  0.88113152  0.49057640  0.51145603     0.83300
N30         N  0.85664596  0.46710620  0.49924420    -0.79200
C31         C  0.96837936  0.42949483  0.54729328     0.80700
N32         N  0.96364976  0.38931215  0.54459567    -0.77600
C33         C  0.93963168  0.36442988  0.53244693     0.83200
N34         N  0.91946528  0.37999410  0.52306518    -0.77500
C35         C  0.92405598  0.42027242  0.52563161     0.83300
N36         N  0.94853618  0.44481660  0.53777801    -0.79200
C37         C  0.45045921  0.41584596  0.00229156     0.80700
N38         N  0.48428626  0.45730611  0.00466389    -0.77600
C39         C  0.48176918  0.48333919  0.01568401     0.83200
N40         N  0.44496547  0.46734941  0.02446244    -0.77500
C41         C  0.41061257  0.42609372  0.02202936     0.83300
N42         N  0.41331378  0.40063489  0.01080198    -0.79200
C43         C  0.32890484  0.41846396  0.05060595     0.80700
N44         N  0.29414585  0.37851392  0.04709317    -0.77600
C45         C  0.29682443  0.35386605  0.03560875     0.83200
N46         N  0.33467043  0.36970310  0.02749007    -0.77500
C47         C  0.36987741  0.40963881  0.03094537     0.83300
N48         N  0.36709914  0.43386360  0.04265806    -0.79200
C49         C  0.99430100  0.75502089  0.38220110     0.80700
N50         N  0.02861555  0.77328312  0.37226872    -0.77600
C51         C  0.02970907  0.74983714  0.35999164     0.83200
N52         N  0.99635290  0.70789318  0.35771612    -0.77500
C53         C  0.96211646  0.68937165  0.36772345     0.83300
N54         N  0.96106071  0.71337398  0.37973846    -0.79200
C55         C  0.10367067  0.76526839  0.32740570     0.80700
N56         N  0.06833668  0.74697756  0.33692490    -0.77600
C57         C  0.06722748  0.76962750  0.34943846     0.83200
N58         N  0.10160478  0.81047355  0.35239187    -0.77500
C59         C  0.13681787  0.82891126  0.34285778     0.83300
N60         N  0.13779948  0.80610817  0.33041685    -0.79200
C61         C  0.17006508  0.08942999  0.16655789     0.80700
N62         N  0.18906723  0.07317791  0.17609537    -0.77600
C63         C  0.21294781  0.09689150  0.18850222     0.83200
N64         N  0.21780285  0.13720224  0.19134548    -0.77500
C65         C  0.19919385  0.15380476  0.18175989     0.83300
N66         N  0.17579158  0.12993454  0.16940252    -0.79200
C67         C  0.27281407  0.08323883  0.22129478     0.80700
N68         N  0.27069895  0.04496859  0.21734729    -0.77600
C69         C  0.25030710  0.02336557  0.20427720     0.83200
N70         N  0.23097116  0.04000525  0.19509118    -0.77500
C71         C  0.23340593  0.07883023  0.19872178     0.83300
N72         N  0.25463789  0.10056966  0.21180946    -0.79200
C73         C  0.04059477  0.69176422  0.83313562     0.80700
N74         N  0.05777396  0.72780720  0.84247838    -0.77600
C75         C  0.03354817  0.73057280  0.85423473     0.83200
N76         N  0.99206691  0.69707210  0.85665135    -0.77500
C77         C  0.97454572  0.66124710  0.84735539     0.83300
N78         N  0.99892155  0.65853153  0.83576839    -0.79200
C79         C  0.04506899  0.81041158  0.88468375     0.80700
N80         N  0.02842864  0.77277269  0.87615538    -0.77600
C81         C  0.05141447  0.77035507  0.86389613     0.83200
N82         N  0.09088347  0.80554633  0.86025879    -0.77500
C83         C  0.10776011  0.84291723  0.86870678     0.83300
N84         N  0.08481590  0.84529633  0.88086135    -0.79200
C85         C  0.71052856  0.62678878  0.66146906     0.80700
N86         N  0.66892054  0.61809352  0.66398180    -0.77600
C87         C  0.64565050  0.59414490  0.67633136     0.83200
N88         N  0.66481127  0.57923571  0.68639763    -0.77500
C89         C  0.70638960  0.58739291  0.68394401     0.83300
N90         N  0.72915386  0.61117419  0.67143481    -0.79200
C91         C  0.72205234  0.53151178  0.71744260     0.80700
N92         N  0.70415875  0.54809377  0.70756057    -0.77600
C93         C  0.72649844  0.57043467  0.69476229     0.83200
N94         N  0.76693275  0.57598034  0.69184187    -0.77500
C95         C  0.78475312  0.55904989  0.70162727     0.83300
N96         N  0.76241287  0.53734107  0.71444526    -0.79200
C97         C  0.37556136  0.35941322  0.50046700     0.80700
N98         N  0.33450317  0.32623740  0.50379656    -0.77600
C99         C  0.31210886  0.32900315  0.51604110     0.83200
N100        N  0.33150568  0.36490277  0.52534075    -0.77500
C101        C  0.37274918  0.39818035  0.52226357     0.83300
N102        N  0.39467592  0.39535487  0.50979639    -0.79200
C103        C  0.39106704  0.47745619  0.55370556     0.80700
N104        N  0.37186527  0.44068053  0.54473194    -0.77600
C105        C  0.39316841  0.43756795  0.53211065     0.83200
N106        N  0.43343879  0.47156004  0.52839404    -0.77500
C107        C  0.45272535  0.50831239  0.53721309     0.83300
N108        N  0.43132928  0.51108941  0.54973074    -0.79200
C109        C  0.38958298  0.99696714  0.00401561     0.80700
N110        N  0.40878925  0.98307693  0.01444965    -0.77600
C111        C  0.38563804  0.95837020  0.02678778     0.83200
N112        N  0.34303158  0.94776886  0.02869901    -0.77500
C113        C  0.32346275  0.96104905  0.01821198     0.83300
N114        N  0.34701200  0.98580279  0.00607534    -0.79200
C115        C  0.40150602  0.90473264  0.06096461     0.80700
N116        N  0.44256440  0.91189948  0.05839568    -0.77600
C117        C  0.46601892  0.93457661  0.04586136     0.83200
N118        N  0.44746497  0.94961777  0.03554418    -0.77500
C119        C  0.40632704  0.94288973  0.03801732     0.83300
N120        N  0.38361451  0.92049964  0.05075135    -0.79200
C121        C  0.06701686  0.21793062  0.38841574     0.80700
N122        N  0.04799779  0.23500687  0.37925980    -0.77600
C123        C  0.06961561  0.25938016  0.36664092     0.83200
N124        N  0.11032983  0.26645110  0.36323268    -0.77500
C125        C  0.12925380  0.24907024  0.37229088     0.83300
N126        N  0.10736620  0.22489049  0.38479425    -0.79200
C127        C  0.04676055  0.31237891  0.33361523     0.80700
N128        N  0.06814711  0.29904100  0.34335628    -0.77600
C129        C  0.04794755  0.27603622  0.35637851     0.83200
N130        N  0.00649730  0.26673509  0.35965456    -0.77500
C131        C  0.98532631  0.28052101  0.35017267     0.83300
N132        N  0.00542229  0.30320682  0.33717325    -0.79200
C133        C  0.71480438  0.15225276  0.21722205     0.80700
N134        N  0.69875464  0.11392146  0.20923275    -0.77600
C135        C  0.72224263  0.11069020  0.19736370     0.83200
N136        N  0.76194212  0.14574705  0.19366446    -0.77500
C137        C  0.77848134  0.18374095  0.20178901     0.83300
N138        N  0.75465131  0.18671072  0.21345256    -0.79200
C139        C  0.70983784  0.03130409  0.16697545     0.80700
N140        N  0.67108991  0.99578311  0.17105290    -0.77600
C141        C  0.64914766  0.99665545  0.18376481     0.83200
N142        N  0.66590770  0.03397644  0.19232891    -0.77500
C143        C  0.70486976  0.06981868  0.18839896     0.83300
N144        N  0.72695844  0.06827092  0.17576463    -0.79200
C145        C  0.49723762  0.69259098  0.33108304     0.80700
N146        N  0.51447247  0.72855618  0.34039369    -0.77600
C147        C  0.53819279  0.73045771  0.35305856     0.83200
N148        N  0.54457448  0.69634327  0.35627772    -0.77500
C149        C  0.52795176  0.66066714  0.34689629     0.83300
N150        N  0.50416401  0.65890521  0.33434982    -0.79200
C151        C  0.60087276  0.80886084  0.38451842     0.80700
N152        N  0.58276045  0.77238314  0.37541497    -0.77600
C153        C  0.55743979  0.76945563  0.36309494     0.83200
N154        N  0.55044912  0.80318230  0.35989963    -0.77500
C155        C  0.56811098  0.83958778  0.36891344     0.83300
N156        N  0.59375127  0.84245956  0.38106784    -0.79200
C157        C  0.27781096  0.14455365  0.71528869     0.80700
N158        N  0.25762173  0.10795743  0.70639501    -0.77600
C159        C  0.23120514  0.10558238  0.69458064     0.83200
N160        N  0.22448766  0.13982464  0.69185370    -0.77500
C161        C  0.24373778  0.17618683  0.70097540     0.83300
N162        N  0.27043925  0.17822235  0.71262515    -0.79200
C163        C  0.16392448  0.02500150  0.66439648     0.80700
N164        N  0.18367639  0.06244909  0.67296944    -0.77600
C165        C  0.20971409  0.06569601  0.68506506     0.83200
N166        N  0.21584641  0.03150271  0.68848810    -0.77500
C167        C  0.19653404  0.99423370  0.67993027     0.83300
N168        N  0.17027391  0.99110821  0.66799917    -0.79200
C169        C  0.45458621  0.99245414  0.50476432     0.80700
N170        N  0.48799620  0.98512078  0.50794038    -0.77600
C171        C  0.48612808  0.95988826  0.52005783     0.83200
N172        N  0.44967991  0.94122431  0.52910568    -0.77500
C173        C  0.41575079  0.94826979  0.52608721     0.83300
N174        N  0.41824778  0.97357300  0.51381752    -0.79200
C175        C  0.33483184  0.88131326  0.55632114     0.80700
N176        N  0.37243276  0.90167038  0.54787522    -0.77600
C177        C  0.37538611  0.92669902  0.53545850     0.83200
N178        N  0.34038174  0.93102278  0.53148956    -0.77500
C179        C  0.30273573  0.91070645  0.53984780     0.83300
N180        N  0.30043978  0.88642152  0.55232487    -0.79200
C181        C  0.66129052  0.53708234  0.22060629     0.80700
N182        N  0.69667219  0.55474284  0.21117169    -0.77600
C183        C  0.69723277  0.57681142  0.19827499     0.83200
N184        N  0.66183508  0.58106397  0.19476872    -0.77500
C185        C  0.62599802  0.56307555  0.20414252     0.83300
N186        N  0.62634734  0.54177279  0.21712592    -0.79200
C187        C  0.77333715  0.63541127  0.16604621     0.80700
N188        N  0.73774897  0.61854866  0.17544562    -0.77600
C189        C  0.73567241  0.59478821  0.18806918     0.83200
N190        N  0.76931077  0.58746633  0.19120618    -0.77500
C191        C  0.80448125  0.60323305  0.18163524     0.83300
N192        N  0.80642546  0.62739588  0.16917017    -0.79200
C193        C  0.83346072  0.36589607  0.99606313     0.80700
N194        N  0.84919294  0.40072616  0.00588780    -0.77600
C195        C  0.87432494  0.40308315  0.01817581     0.83200
N196        N  0.88366866  0.37053688  0.02056742    -0.77500
C197        C  0.86858767  0.33589822  0.01074810     0.83300
N198        N  0.84344319  0.33375133  0.99853936    -0.79200
C199        C  0.93942894  0.48069807  0.04939529     0.80700
N200        N  0.92038617  0.44451365  0.04019050    -0.77600
C201        C  0.89295531  0.44134231  0.02854760     0.83200
N202        N  0.88419302  0.47439772  0.02623402    -0.77500
C203        C  0.90277548  0.51037865  0.03549777     0.83300
N204        N  0.93046045  0.51344538  0.04688874    -0.79200
C205        C  0.10219031  0.30111060  0.83245992     0.80700
N206        N  0.06689019  0.28623773  0.84202011    -0.77600
C207        C  0.06547296  0.26534164  0.85545172     0.83200
N208        N  0.09992676  0.26011331  0.85942456    -0.77500
C209        C  0.13560069  0.27594631  0.85010171     0.83300
N210        N  0.13622386  0.29596237  0.83672984    -0.79200
C211        C  0.98701137  0.20765532  0.88747119     0.80700
N212        N  0.02361072  0.22473958  0.87846824    -0.77600
C213        C  0.02674196  0.24831301  0.86557987     0.83200
N214        N  0.99312958  0.25488203  0.86175015    -0.77500
C215        C  0.95656723  0.23798664  0.87062432     0.83300
N216        N  0.95374351  0.21471166  0.88348953    -0.79200
O217        O  0.55183809  0.17550689  0.81819816    -0.80800
O218        O  0.65385982  0.38259568  0.86871855    -0.81200
O219        O  0.61785318  0.32847012  0.81737896    -0.78200
O220        O  0.67637518  0.27392500  0.84755689    -0.76600
O221        O  0.65469800  0.23135824  0.86924294    -0.78400
O222        O  0.55353215  0.32919202  0.81650095    -0.79300
O223        O  0.67432985  0.35956316  0.84731386    -0.80600
O224        O  0.61706391  0.23977421  0.81816770    -0.80900
Eu225      Eu  0.61624646  0.28554079  0.83969946     2.39200
O226        O  0.61586048  0.28657858  0.86674450    -0.88400
O227        O  0.54386324  0.24934414  0.83036373    -0.92000
C228        C  0.59030954  0.20118529  0.81257610     1.02700
C229        C  0.68150413  0.38779837  0.85803554     1.02500
C230        C  0.59177519  0.33946537  0.81104393     1.02400
C231        C  0.68310919  0.25381795  0.85871238     1.00300
H232        H  0.59596063  0.35291223  0.84463126     0.30000
O233        O  0.58071743  0.32306891  0.84845495    -1.00800
H234        H  0.59508515  0.19815228  0.84543465     0.30100
O235        O  0.57996574  0.21301865  0.84897291    -1.03400
O236        O  0.53684105  0.32268175  0.89825136    -0.80600
O237        O  0.43202929  0.11887850  0.84626873    -0.80100
O238        O  0.52300191  0.36069053  0.84564148    -0.78600
O239        O  0.62644426  0.25968203  0.89731820    -0.81900
O240        O  0.56525240  0.14050438  0.86893471    -0.79800
O241        O  0.46368923  0.24130975  0.81736004    -0.78400
O242        O  0.41425559  0.23204653  0.86908568    -0.79900
O243        O  0.47097643  0.17089470  0.89776527    -0.81900
O244        O  0.43559104  0.27462397  0.84743279    -0.78600
O245        O  0.53681365  0.17282466  0.89871873    -0.81300
O246        O  0.56363017  0.38103229  0.86790602    -0.77000
O247        O  0.46476256  0.17678159  0.81736715    -0.77000
O248        O  0.52204436  0.11808764  0.84741556    -0.76700
O249        O  0.62698978  0.32486961  0.89710458    -0.80200
O250        O  0.47155573  0.25802012  0.89777404    -0.79600
O251        O  0.41046530  0.14189993  0.86736285    -0.77900
Eu252      Eu  0.58008320  0.32352372  0.87568458     2.39800
Eu253      Eu  0.50724690  0.17675449  0.83978972     2.39600
Eu254      Eu  0.50822651  0.28678461  0.83902935     2.38400
Eu255      Eu  0.57978326  0.21410724  0.87605036     2.39900
Eu256      Eu  0.47117672  0.21430612  0.87552960     2.39800
O257        O  0.50669667  0.17664117  0.86695980    -0.92300
O258        O  0.50778545  0.28698574  0.86621288    -0.91200
C259        C  0.49870903  0.29538116  0.90396673     1.02800
C260        C  0.40337108  0.11389313  0.85650026     1.01500
C261        C  0.54305861  0.38752375  0.85683000     1.00900
C262        C  0.63917825  0.29859276  0.90262782     1.02900
C263        C  0.54425860  0.11253845  0.85813499     1.01900
C264        C  0.45275973  0.20311964  0.81178421     1.00700
C265        C  0.40839864  0.25451354  0.85862083     1.00800
C266        C  0.49831537  0.16133962  0.90406218     1.03400
H267        H  0.44159998  0.19952317  0.84466392     0.30800
O268        O  0.47143394  0.21411778  0.84841077    -1.04500
H269        H  0.54389135  0.25115748  0.89594962     0.32800
O270        O  0.54369432  0.25082548  0.88483008    -1.07100
O271        O  0.80229100  0.85122970  0.98818051    -0.79600
O272        O  0.90624672  0.05568663  0.03875602    -0.81200
O273        O  0.77111739  0.94478746  0.01869213    -0.78200
O274        O  0.88818734  0.00449012  0.98820762    -0.76600
O275        O  0.95452807  0.00731633  0.98791375    -0.78400
O276        O  0.74994618  0.89949143  0.03972666    -0.79300
O277        O  0.86276556  0.03400959  0.01733099    -0.80600
O278        O  0.79928789  0.91473796  0.98859718    -0.80900
Eu279      Eu  0.84451493  0.95905893  0.01023875     2.39200
O280        O  0.91775406  0.99577005  0.01884212    -0.88400
O281        O  0.80991107  0.88584424  0.01898925    -0.92000
C282        C  0.78941652  0.87711436  0.98281211     1.02700
C283        C  0.88560692  0.06246554  0.02783552     1.02500
C284        C  0.74357896  0.92235429  0.02952483     1.02400
C285        C  0.92682643  0.01783007  0.98253991     1.00300
H286        H  0.83027472  0.97356657  0.04117916     0.30000
O287        O  0.84496274  0.95860524  0.03730664    -1.00800
H288        H  0.88103643  0.92376910  0.98952810     0.30100
O289        O  0.88150234  0.92361781  0.00065420    -1.03400
O290        O  0.95912277  0.99436668  0.06879318    -0.80600
O291        O  0.86163092  0.79104486  0.01728222    -0.80100
O292        O  0.80981834  0.92888408  0.06817270    -0.78600
O293        O  0.01447518  0.03305055  0.01762612    -0.81900
O294        O  0.95324442  0.91613686  0.98647561    -0.79800
O295        O  0.75036412  0.81254097  0.03765595    -0.78400
O296        O  0.87682255  0.84489994  0.06787993    -0.79900
O297        O  0.99499647  0.90578228  0.03806020    -0.81900
O298        O  0.81076711  0.84237308  0.06835615    -0.78600
O299        O  0.01412521  0.94644703  0.01595416    -0.81300
O300        O  0.87454178  0.99434633  0.06797849    -0.77000
O301        O  0.77304278  0.79277253  0.01592832    -0.77000
O302        O  0.88925558  0.84992920  0.98718543    -0.76700
O303        O  0.99244878  0.05296884  0.03938981    -0.80200
O304        O  0.96084051  0.93043466  0.06837192    -0.79600
O305        O  0.90651411  0.81513188  0.03829205    -0.77900
Eu306      Eu  0.91817715  0.99513295  0.04595360     2.39800
Eu307      Eu  0.84725014  0.85065039  0.00967634     2.39600
Eu308      Eu  0.80958312  0.88515666  0.04605431     2.38400
Eu309      Eu  0.95474777  0.96059598  0.00912534     2.39900
Eu310      Eu  0.92016638  0.88799246  0.04553320     2.39800
O311        O  0.92023220  0.88782457  0.01837088    -0.92300
O312        O  0.88258256  0.92243563  0.05480651    -0.91200
C313        C  0.96998149  0.96745545  0.07461246     1.02800
C314        C  0.88385090  0.78576688  0.02811413     1.01500
C315        C  0.83659476  0.96741373  0.07369930     1.00900
C316        C  0.02103627  0.05951851  0.02896703     1.02900
C317        C  0.92654446  0.87722001  0.98104127     1.01900
C318        C  0.74466197  0.78599912  0.02647440     1.00700
C319        C  0.83914164  0.83317256  0.07400451     1.00800
C320        C  0.02191582  0.92651507  0.02693310     1.03400
H321        H  0.83222001  0.81980662  0.04050460     0.30800
O322        O  0.84686266  0.84978510  0.03681558    -1.04500
H323        H  0.98521030  0.97537419  0.04023911     0.32800
O324        O  0.95545544  0.96044962  0.03639011    -1.07100
O325        O  0.63677556  0.32579560  0.39976926    -0.79600
O326        O  0.52740943  0.12070430  0.34946593    -0.81200
O327        O  0.54746917  0.17736333  0.40027531    -0.78200
O328        O  0.66038776  0.22775141  0.36867711    -0.76600
O329        O  0.68221901  0.27296239  0.34779361    -0.78400
O330        O  0.48271031  0.17726826  0.40137815    -0.79300
O331        O  0.57122208  0.14264234  0.37078782    -0.80600
O332        O  0.63723848  0.26119295  0.39879090    -0.80900
Eu333      Eu  0.58939039  0.21757177  0.37747995     2.39200
O334        O  0.58903616  0.21771201  0.35042927    -0.88400
O335        O  0.55336025  0.25340289  0.38734586    -0.92000
C336        C  0.64957880  0.29932872  0.40466726     1.02700
C337        C  0.54807081  0.11393358  0.36046488     1.02500
C338        C  0.51096375  0.16763209  0.40687936     1.02400
C339        C  0.68788395  0.24909163  0.35774684     1.00300
H340        H  0.50063353  0.15127240  0.37294603     0.30000
O341        O  0.51580095  0.18115811  0.36916846    -1.00800
H342        H  0.65649086  0.30556423  0.37229083     0.30100
O343        O  0.62633390  0.29086072  0.36885822    -1.03400
O344        O  0.47138276  0.18245334  0.32037122    -0.80600
O345        O  0.57628691  0.38643228  0.37249781    -0.80100
O346        O  0.42022422  0.14464508  0.37088527    -0.78600
O347        O  0.62150524  0.24872535  0.31873019    -0.81900
O348        O  0.68368334  0.36550103  0.34875452    -0.79800
O349        O  0.47944244  0.26313803  0.40018859    -0.78400
O350        O  0.44337728  0.27634637  0.34943251    -0.79900
O351        O  0.56147099  0.33745417  0.32072718    -0.81900
O352        O  0.42112052  0.23222222  0.37078385    -0.78600
O353        O  0.62591443  0.33683370  0.32025377    -0.81300
O354        O  0.44132276  0.12475325  0.34883211    -0.77000
O355        O  0.54591261  0.32687774  0.40090166    -0.77000
O356        O  0.66185439  0.38653526  0.37036870    -0.76700
O357        O  0.55745625  0.18232511  0.31941206    -0.80200
O358        O  0.47200248  0.24785488  0.32060886    -0.79600
O359        O  0.53395155  0.36540857  0.35070000    -0.77900
Eu360      Eu  0.51569818  0.18184882  0.34205688     2.39800
Eu361      Eu  0.58999300  0.32650989  0.37875234     2.39600
Eu362      Eu  0.48012277  0.21792843  0.37858703     2.38400
Eu363      Eu  0.62503504  0.29109979  0.34175148     2.39900
Eu364      Eu  0.51704696  0.29167757  0.34253958     2.39800
O365        O  0.58959649  0.32738944  0.35159752    -0.92300
O366        O  0.48038233  0.21869106  0.35149171    -0.91200
C367        C  0.46062291  0.20973838  0.31482843     1.02800
C368        C  0.55519113  0.39286519  0.36165288     1.01500
C369        C  0.41358096  0.11793487  0.35965021     1.00900
C370        C  0.59429659  0.21037949  0.31318662     1.02900
C371        C  0.68915035  0.39359007  0.35935747     1.01900
C372        C  0.50684384  0.30090399  0.40614137     1.00700
C373        C  0.41539960  0.25444403  0.36009775     1.00800
C374        C  0.59962880  0.34913634  0.31495476     1.03400
H375        H  0.50237659  0.30603813  0.37344874     0.30800
O376        O  0.51707921  0.29098962  0.36967363    -1.04500
H377        H  0.55153545  0.25535551  0.32195820     0.32800
O378        O  0.55208714  0.25491139  0.33306482    -1.07100
O379        O  0.35219033  0.70039072  0.68387434    -0.79600
O380        O  0.14555754  0.59334132  0.73334890    -0.81200
O381        O  0.24105231  0.71825722  0.70446335    -0.78200
O382        O  0.30244422  0.66351391  0.73395251    -0.76600
O383        O  0.30143337  0.59847716  0.73397859    -0.78400
O384        O  0.20052113  0.69668598  0.68223357    -0.79300
O385        O  0.21115709  0.65824156  0.73432645    -0.80600
O386        O  0.32745982  0.72084556  0.70489469    -0.80900
Eu387      Eu  0.25548565  0.65982775  0.71223849     2.39200
O388        O  0.21887787  0.58685272  0.72110365    -0.88400
O389        O  0.25672862  0.66011818  0.68514493    -0.92000
C390        C  0.35628562  0.72785985  0.69447880     1.02700
C391        C  0.17257825  0.63089250  0.73955632     1.02500
C392        C  0.22084947  0.72430163  0.69320304     1.02400
C393        C  0.31435940  0.63701834  0.73951678     1.00300
H394        H  0.16781426  0.63751786  0.70604025     0.30000
O395        O  0.18317671  0.62292449  0.70247200    -1.00800
H396        H  0.32386612  0.64081585  0.70724224     0.30100
O397        O  0.29407893  0.62552729  0.70343497    -1.03400
O398        O  0.08968053  0.47420078  0.70347257    -0.80600
O399        O  0.29888069  0.58236497  0.65502142    -0.80100
O400        O  0.11123501  0.60872050  0.68228917    -0.78600
O401        O  0.21120305  0.50831453  0.73433694    -0.81900
O402        O  0.33008830  0.56442044  0.70484873    -0.79800
O403        O  0.22951102  0.66906469  0.65387910    -0.78400
O404        O  0.14434694  0.51508736  0.65342594    -0.79900
O405        O  0.20254773  0.45691310  0.68329988    -0.81900
O406        O  0.14101287  0.57794652  0.65326702    -0.78600
O407        O  0.24341041  0.47915709  0.70535588    -0.81300
O408        O  0.08785138  0.56311550  0.70310810    -0.77000
O409        O  0.29573937  0.67182138  0.65443361    -0.77000
O410        O  0.35284113  0.60906708  0.68369528    -0.76700
O411        O  0.14546549  0.50650649  0.73334398    -0.80200
O412        O  0.11501016  0.45520743  0.68231281    -0.79600
O413        O  0.23492359  0.51595692  0.65476059    -0.77900
Eu414      Eu  0.14677833  0.54968300  0.71117345     2.39800
Eu415      Eu  0.29534872  0.62618501  0.67628748     2.39600
Eu416      Eu  0.18479227  0.62275851  0.67531955     2.38400
Eu417      Eu  0.25730689  0.55245927  0.71242240     2.39900
Eu418      Eu  0.18784174  0.51569036  0.67563620     2.39800
O419        O  0.25945374  0.55349821  0.68539775    -0.92300
O420        O  0.14860904  0.54964965  0.68408144    -0.91200
C421        C  0.08601266  0.44688269  0.69276599     1.02800
C422        C  0.27359380  0.54343688  0.64960678     1.01500
C423        C  0.08224490  0.58569139  0.69254998     1.00900
C424        C  0.17211538  0.49585243  0.73942189     1.02900
C425        C  0.35809444  0.58564638  0.69406035     1.01900
C426        C  0.26855805  0.68256502  0.64868004     1.00700
C427        C  0.13111154  0.54005713  0.64758714     1.00800
C428        C  0.22277154  0.45088084  0.69460988     1.03400
H429        H  0.22405931  0.58859859  0.65529110     0.30800
O430        O  0.22333825  0.58846236  0.66641865    -1.04500
H431        H  0.17059513  0.48505473  0.70637029     0.32800
O432        O  0.18531984  0.51504498  0.70270443    -1.07100
O433        O  0.22299029  0.51023005  0.15149798    -0.79600
O434        O  0.32854386  0.71354052  0.20342218    -0.81200
O435        O  0.29263747  0.66951365  0.15205478    -0.78200
O436        O  0.34823738  0.60584383  0.18100463    -0.76600
O437        O  0.32345534  0.56118735  0.20221950    -0.78400
O438        O  0.22953101  0.67266456  0.15202059    -0.79300
O439        O  0.35086353  0.69294598  0.18187315    -0.80600
O440        O  0.28952969  0.57367301  0.15173618    -0.80900
Eu441      Eu  0.29003622  0.62094364  0.17309409     2.39200
O442        O  0.28822390  0.61897633  0.20017448    -0.88400
O443        O  0.21751564  0.58745903  0.16366874    -0.92000
C444        C  0.26223876  0.53492742  0.14633599     1.02700
C445        C  0.35699888  0.71997602  0.19299455     1.02500
C446        C  0.26788383  0.68371554  0.14665111     1.02400
C447        C  0.35287513  0.58377637  0.19200179     1.00300
H448        H  0.27182465  0.68919961  0.17920052     0.30000
O449        O  0.25553390  0.65878225  0.18251120    -1.00800
H450        H  0.26480588  0.53215646  0.17841406     0.30100
O451        O  0.25056864  0.54786933  0.18199476    -1.03400
O452        O  0.20907711  0.65975759  0.23061103    -0.80600
O453        O  0.10354781  0.45656972  0.17963948    -0.80100
O454        O  0.20065859  0.70017555  0.18147129    -0.78600
O455        O  0.29734896  0.59049575  0.23041034    -0.81900
O456        O  0.23207235  0.47230941  0.20118850    -0.79800
O457        O  0.14199464  0.58460341  0.14994304    -0.78400
O458        O  0.08636721  0.56744478  0.20154935    -0.79900
O459        O  0.14173756  0.50662642  0.23103378    -0.81900
O460        O  0.10993418  0.61247744  0.18043796    -0.78600
O461        O  0.20488761  0.50342516  0.23135065    -0.81300
O462        O  0.24389482  0.71799033  0.20294265    -0.77000
O463        O  0.13918628  0.51827254  0.14945860    -0.77000
O464        O  0.18972107  0.45281931  0.17945778    -0.76700
O465        O  0.29834559  0.65564729  0.23118518    -0.80200
O466        O  0.14257702  0.59661016  0.23005024    -0.79600
O467        O  0.08448104  0.47885855  0.20161691    -0.77900
Eu468      Eu  0.25403012  0.65660084  0.20960332     2.39800
Eu469      Eu  0.17827378  0.51406454  0.17243358     2.39600
Eu470      Eu  0.18316405  0.62571307  0.17304170     2.38400
Eu471      Eu  0.24952880  0.54626582  0.20909981     2.39900
Eu472      Eu  0.14384714  0.55118952  0.20883216     2.39800
O473        O  0.17731029  0.51243204  0.19956760    -0.92300
O474        O  0.18217819  0.62408682  0.20011345    -0.91200
C475        C  0.16955239  0.63488427  0.23560189     1.02800
C476        C  0.07675564  0.45124231  0.19066617     1.01500
C477        C  0.22289910  0.72633773  0.19265417     1.00900
C478        C  0.31054917  0.62902010  0.23618993     1.02900
C479        C  0.21081121  0.44549366  0.19012733     1.01900
C480        C  0.13088849  0.54714995  0.14362303     1.00700
C481        C  0.08158743  0.59073231  0.19108186     1.00800
C482        C  0.16738242  0.49441226  0.23706001     1.03400
H483        H  0.11362869  0.53800670  0.17766180     0.30800
O484        O  0.14401449  0.55226773  0.18163581    -1.04500
H485        H  0.21535125  0.58432831  0.22988022     0.32800
O486        O  0.21551978  0.58423948  0.21871841    -1.07100
O487        O  0.87643634  0.98722631  0.56503654    -0.79600
O488        O  0.77402809  0.78675564  0.51160524    -0.81200
O489        O  0.75453496  0.89791313  0.53402339    -0.78200
O490        O  0.80873070  0.83286220  0.56284107    -0.76600
O491        O  0.87251278  0.83083465  0.56258825    -0.78400
O492        O  0.77903935  0.94358131  0.51306677    -0.79300
O493        O  0.75264575  0.80757200  0.53338804    -0.80600
O494        O  0.81068652  0.92304638  0.56387566    -0.80900
Eu495      Eu  0.81120519  0.88019052  0.54147730     2.39200
O496        O  0.84561309  0.84250447  0.53191065    -0.88400
O497        O  0.84947190  0.95360761  0.53319491    -0.92000
C498        C  0.83727145  0.96066088  0.57005110     1.02700
C499        C  0.74627469  0.78023669  0.52241835     1.02500
C500        C  0.75024865  0.92137113  0.52348997     1.02400
C501        C  0.83447499  0.81972422  0.56815670     1.00300
H502        H  0.78315077  0.86845769  0.51038365     0.30000
O503        O  0.81281330  0.88257342  0.51433248    -1.00800
H504        H  0.88240914  0.91234357  0.56230653     0.30100
O505        O  0.88302904  0.91360771  0.55118604    -1.03400
O506        O  0.89444125  0.84846275  0.48309613    -0.80600
O507        O  0.99480274  0.04716570  0.53696879    -0.80100
O508        O  0.80804402  0.91317561  0.48359340    -0.78600
O509        O  0.90130984  0.80213913  0.53335144    -0.81900
O510        O  0.96155276  0.91699543  0.56347630    -0.79800
O511        O  0.86585680  0.02899492  0.51419717    -0.78400
O512        O  0.96308740  0.00391173  0.48553529    -0.79900
O513        O  0.01602974  0.93549690  0.51377309    -0.81900
O514        O  0.89831439  0.00404174  0.48524929    -0.78600
O515        O  0.99033902  0.88917473  0.53440592    -0.81300
O516        O  0.80616752  0.84722626  0.48288956    -0.77000
O517        O  0.90582511  0.04685091  0.53655463    -0.77000
O518        O  0.96538645  0.98356313  0.56457821    -0.76700
O519        O  0.85927231  0.78464364  0.51182748    -0.80200
O520        O  0.95991569  0.91341396  0.48381448    -0.79600
O521        O  0.01877483  0.02698243  0.51567021    -0.77900
Eu522      Eu  0.84852207  0.84605499  0.50490975     2.39800
Eu523      Eu  0.92105561  0.98744619  0.54318924     2.39600
Eu524      Eu  0.85165418  0.95614289  0.50607713     2.38400
Eu525      Eu  0.91764245  0.87636115  0.54124686     2.39900
Eu526      Eu  0.95971544  0.95469547  0.50657538     2.39800
O527        O  0.95662656  0.95071209  0.53362948    -0.92300
O528        O  0.88755733  0.91993475  0.49668149    -0.91200
C529        C  0.93288416  0.87593240  0.47768414     1.02800
C530        C  0.02383989  0.05392501  0.52666468     1.01500
C531        C  0.79619918  0.87519573  0.47752933     1.00900
C532        C  0.87937348  0.77552128  0.52225047     1.02900
C533        C  0.97532783  0.95499762  0.56960144     1.01900
C534        C  0.88581040  0.05483095  0.52565195     1.00700
C535        C  0.93704585  0.01648344  0.48000312     1.00800
C536        C  0.01965530  0.91104761  0.52414500     1.03400
H537        H  0.93909310  0.02112136  0.51287061     0.30800
O538        O  0.92350513  0.99068460  0.51606949    -1.04500
H539        H  0.93509720  0.86490438  0.51042400     0.32800
O540        O  0.92075704  0.88022633  0.51428650    -1.07100
C541        C  0.98340244  0.12058108  0.91496527    -0.11400
C542        C  0.96591685  0.12854390  0.92827366     0.11200
C543        C  0.95738042  0.16385902  0.92837897    -0.03200
C544        C  0.96542202  0.18918806  0.91489603    -0.05900
C545        C  0.98237710  0.18092789  0.90145556    -0.16700
C546        C  0.99137004  0.14581261  0.90144686     0.02200
C547        C  0.95625728  0.09891885  0.94186122     0.12200
C548        C  0.93998131  0.17480223  0.94269912     0.62800
H549        H  0.95867242  0.21601724  0.91476214     0.12200
C550        C  0.00774765  0.13377997  0.88712521     0.54900
H551        H  0.99040469  0.09393123  0.91523328     0.08000
C552        C  0.91761804  0.05702127  0.94275790    -0.05800
C553        C  0.90912466  0.03214156  0.95635105    -0.06500
C554        C  0.93927047  0.04626107  0.96858318    -0.16100
C555        C  0.97938945  0.08685173  0.96724316    -0.01700
C556        C  0.98673235  0.11292989  0.95398597    -0.09300
C557        C  0.88610063  0.03805457  0.92925882     0.65000
H558        H  0.87920131  0.00057155  0.95737628     0.10500
C559        C  0.01453891  0.10239139  0.97959040     0.63400
H560        H  0.01677102  0.14433170  0.95283584     0.07800
F561        F  0.00724164  0.09440432  0.88890845    -0.19600
F562        F  0.05045394  0.16628532  0.88405014    -0.15900
F563        F  0.98124157  0.12923876  0.87467451    -0.19400
F564        F  0.97079139  0.18805996  0.95436643    -0.22700
F565        F  0.90150701  0.13820945  0.94749922    -0.24200
F566        F  0.93118743  0.20844698  0.94005814    -0.18200
F567        F  0.03230780  0.07517228  0.97967033    -0.20700
F568        F  0.99671812  0.10134901  0.99388382    -0.21900
F569        F  0.04822513  0.14502125  0.97696419    -0.19000
F570        F  0.84942126  0.99804342  0.93287313    -0.19100
F571        F  0.90707129  0.03127573  0.91701664    -0.23000
F572        F  0.87209015  0.06672294  0.92482179    -0.24600
C573        C  0.84389911  0.21550972  0.85843073    -0.11400
C574        C  0.84900875  0.25757531  0.85965822     0.11200
C575        C  0.89060279  0.29404602  0.86349611    -0.03200
C576        C  0.92552091  0.28653813  0.86662001    -0.05900
C577        C  0.91963930  0.24402874  0.86610087    -0.16700
C578        C  0.87887933  0.20817206  0.86132948     0.02200
C579        C  0.80873604  0.26083112  0.85875686     0.12200
C580        C  0.89787893  0.34041349  0.86446348     0.62800
H581        H  0.95736528  0.31358916  0.86997427     0.12200
C582        C  0.87262507  0.16255562  0.85908069     0.54900
H583        H  0.81171115  0.18808863  0.85563504     0.08000
C584        C  0.78678130  0.25738589  0.84472205    -0.05800
C585        C  0.74597507  0.25556632  0.84523528    -0.06500
C586        C  0.72663068  0.25678801  0.85926690    -0.16100
C587        C  0.74985236  0.26228489  0.87323769    -0.01700
C588        C  0.79013478  0.26326969  0.87269478    -0.09300
C589        C  0.80587775  0.25480576  0.82933644     0.65000
H590        H  0.72821075  0.25191599  0.83463760     0.10500
C591        C  0.73318595  0.26807680  0.88868027     0.63400
H592        H  0.80724487  0.26507661  0.88328779     0.07800
F593        F  0.83198065  0.13368880  0.85276327    -0.19600
F594        F  0.87583763  0.14565460  0.87307009    -0.15900
F595        F  0.90453307  0.16489820  0.84920521    -0.19400
F596        F  0.87354946  0.34330940  0.87640112    -0.22700
F597        F  0.88521368  0.35106033  0.85081976    -0.24200
F598        F  0.94158844  0.37132191  0.86703613    -0.18200
F599        F  0.69829517  0.22833703  0.89350234    -0.20700
F600        F  0.71996492  0.29883687  0.88742397    -0.21900
F601        F  0.76550190  0.28286160  0.89989301    -0.19000
F602        F  0.78199110  0.25716942  0.81707523    -0.19100
F603        F  0.80562674  0.21548061  0.82825322    -0.23000
F604        F  0.84857971  0.28925176  0.82797068    -0.24600
C605        C  0.10299752  0.40439769  0.76805215    -0.11400
C606        C  0.13306251  0.41490903  0.78011693     0.11200
C607        C  0.17587592  0.45194782  0.77881931    -0.03200
C608        C  0.18686310  0.47799585  0.76546911    -0.05900
C609        C  0.15689579  0.46756056  0.75332677    -0.16700
C610        C  0.11407898  0.42999216  0.75456393     0.02200
C611        C  0.12061683  0.38353093  0.79314165     0.12200
C612        C  0.21028907  0.46302030  0.79124709     0.62800
H613        H  0.21939741  0.50653205  0.76429363     0.12200
C614        C  0.08071266  0.41557720  0.74154441     0.54900
H615        H  0.07090656  0.37522229  0.76919763     0.08000
C616        C  0.09646122  0.38422980  0.80603559    -0.05800
C617        C  0.08932632  0.35528052  0.81837812    -0.06500
C618        C  0.10576623  0.32614675  0.81815010    -0.16100
C619        C  0.12745530  0.32372682  0.80463898    -0.01700
C620        C  0.13399430  0.35234421  0.79235374    -0.09300
C621        C  0.07894159  0.41577745  0.80678450     0.65000
H622        H  0.07228892  0.35646056  0.82857783     0.10500
C623        C  0.14413541  0.29159195  0.80292235     0.63400
H624        H  0.15133268  0.35185975  0.78211996     0.07800
F625        F  0.06613202  0.44522945  0.73993017    -0.19600
F626        F  0.04442010  0.37450496  0.74425256    -0.15900
F627        F  0.09960326  0.41317797  0.72791275    -0.19400
F628        F  0.22058843  0.43000569  0.79212220    -0.22700
F629        F  0.19450924  0.46705826  0.80535273    -0.24200
F630        F  0.24863244  0.50216915  0.78822089    -0.18200
F631        F  0.15484983  0.28863846  0.78778954    -0.20700
F632        F  0.11213542  0.24995149  0.80750994    -0.21900
F633        F  0.18158112  0.30545139  0.81170210    -0.19000
F634        F  0.05668700  0.41143978  0.82040266    -0.19100
F635        F  0.05017724  0.40746745  0.79471673    -0.23000
F636        F  0.11319919  0.45872776  0.80575763    -0.24600
C637        C  0.25289955  0.30535699  0.85808845    -0.11400
C638        C  0.24837248  0.26348633  0.85857361     0.11200
C639        C  0.20609917  0.22544313  0.85809593    -0.03200
C640        C  0.16934606  0.23074522  0.85616736    -0.05900
C641        C  0.17428763  0.27267415  0.85441038    -0.16700
C642        C  0.21647703  0.31071911  0.85574282     0.02200
C643        C  0.28900588  0.26097254  0.85832647     0.12200
C644        C  0.20029515  0.17973163  0.85918583     0.62800
H645        H  0.13672729  0.20218447  0.85525397     0.12200
C646        C  0.22319626  0.35682675  0.85452076     0.54900
H647        H  0.28566092  0.33384223  0.85863746     0.08000
C648        C  0.31056787  0.26222197  0.84442633    -0.05800
C649        C  0.34904181  0.25974931  0.84519539    -0.06500
C650        C  0.36716963  0.25673206  0.85924432    -0.16100
C651        C  0.34576459  0.25645269  0.87323522    -0.01700
C652        C  0.30700342  0.25869025  0.87242653    -0.09300
C653        C  0.29414797  0.26494275  0.82847111     0.65000
H654        H  0.36521654  0.26029802  0.83457184     0.10500
C655        C  0.36352999  0.25465803  0.88901606     0.63400
H656        H  0.28999825  0.25837690  0.88285649     0.07800
F657        F  0.21609746  0.36509955  0.83954655    -0.19600
F658        F  0.26544669  0.38864515  0.85859869    -0.15900
F659        F  0.19434412  0.36088333  0.86424125    -0.19400
F660        F  0.21830549  0.17572653  0.87281427    -0.22700
F661        F  0.22116074  0.17276647  0.84695021    -0.24200
F662        F  0.15644448  0.14721013  0.85888687    -0.18200
F663        F  0.34068237  0.26081332  0.90080131    -0.20700
F664        F  0.40706806  0.28740682  0.89023855    -0.21900
F665        F  0.35973365  0.21394009  0.89117337    -0.19000
F666        F  0.27875095  0.22502870  0.82111073    -0.19100
F667        F  0.32845218  0.29734759  0.81999779    -0.23000
F668        F  0.26072944  0.27459821  0.82858501    -0.24600
C669        C  0.02893046  0.48196812  0.07496740    -0.11400
C670        C  0.02452396  0.50224779  0.08824446     0.11200
C671        C  0.99162302  0.51400315  0.08879886    -0.03200
C672        C  0.96397839  0.50485344  0.07601099    -0.05900
C673        C  0.96814623  0.48473274  0.06263643    -0.16700
C674        C  0.00102012  0.47261971  0.06208619     0.02200
C675        C  0.05484136  0.51148551  0.10148868     0.12200
C676        C  0.98639291  0.53726658  0.10269974     0.62800
H677        H  0.93897188  0.51411887  0.07629813     0.12200
C678        C  0.00753406  0.45103499  0.04796240     0.54900
H679        H  0.05460082  0.47361933  0.07479789     0.08000
C680        C  0.04717035  0.47924879  0.11271438    -0.05800
C681        C  0.07323390  0.49216695  0.12613969    -0.06500
C682        C  0.10646737  0.53606726  0.12868403    -0.16100
C683        C  0.11607189  0.56758556  0.11681762    -0.01700
C684        C  0.08992609  0.55452163  0.10341529    -0.09300
C685        C  0.01104311  0.43166977  0.11059639     0.65000
H686        H  0.06706778  0.46809090  0.13495719     0.10500
C687        C  0.15399751  0.61466048  0.11801949     0.63400
H688        H  0.09563757  0.57834204  0.09448931     0.07800
F689        F  0.04426742  0.44659761  0.04932565    -0.19600
F690        F  0.01293014  0.47622645  0.03502282    -0.15900
F691        F  0.97144280  0.40944361  0.04599334    -0.19400
F692        F  0.02228309  0.57930600  0.10377337    -0.22700
F693        F  0.98323359  0.51436790  0.11603193    -0.24200
F694        F  0.94902214  0.54068508  0.10163733    -0.18200
F695        F  0.16239056  0.63658086  0.10407980    -0.20700
F696        F  0.19183163  0.61486437  0.12241765    -0.21900
F697        F  0.14416942  0.63762952  0.12868336    -0.19000
F698        F  0.00890055  0.40555954  0.12285940    -0.19100
F699        F  0.01883636  0.41458739  0.09742563    -0.23000
F700        F  0.97078871  0.42926920  0.10927359    -0.24600
C701        C  0.88957917  0.68605358  0.04277613    -0.11400
C702        C  0.88496149  0.66350913  0.02902762     0.11200
C703        C  0.87693720  0.67901498  0.01511664    -0.03200
C704        C  0.87685165  0.71902158  0.01530098    -0.05900
C705        C  0.88348010  0.74315465  0.02899137    -0.16700
C706        C  0.88864139  0.72549710  0.04314555     0.02200
C707        C  0.88941179  0.62390775  0.02970484     0.12200
C708        C  0.86682703  0.65236603  0.00035412     0.62800
H709        H  0.87133359  0.73157135  0.00470019     0.12200
C710        C  0.89215977  0.74689617  0.05873609     0.54900
H711        H  0.89474781  0.67260487  0.05327120     0.08000
C712        C  0.93086334  0.62700284  0.02820578    -0.05800
C713        C  0.93306807  0.58835766  0.02929953    -0.06500
C714        C  0.89588438  0.54775429  0.03277293    -0.16100
C715        C  0.85497166  0.54513988  0.03530533    -0.01700
C716        C  0.85217423  0.58337502  0.03330807    -0.09300
C717        C  0.97284409  0.67117283  0.02635317     0.65000
H718        H  0.96432158  0.58974207  0.02803174     0.10500
C719        C  0.81540055  0.50297237  0.04096288     0.63400
H720        H  0.82121106  0.58232263  0.03500665     0.07800
F721        F  0.93227596  0.78530450  0.06002527    -0.19600
F722        F  0.88901594  0.71977133  0.07082668    -0.15900
F723        F  0.85844096  0.75590671  0.06039088    -0.19400
F724        F  0.82805585  0.61285581  0.00216369    -0.22700
F725        F  0.90006662  0.64373881  0.99695256    -0.24200
F726        F  0.86204144  0.67415014  0.98791247    -0.18200
F727        F  0.78038239  0.50895301  0.04439204    -0.20700
F728        F  0.82629402  0.48870292  0.05420847    -0.21900
F729        F  0.80202682  0.47077987  0.02978215    -0.19000
F730        F  0.00943146  0.66647443  0.02508138    -0.19100
F731        F  0.97861309  0.69720785  0.03907376    -0.23000
F732        F  0.97071107  0.69252225  0.01331887    -0.24600
C733        C  0.89522494  0.24416962  0.00573162    -0.11400
C734        C  0.88847325  0.22750465  0.02074745     0.11200
C735        C  0.88116169  0.25000464  0.03283093    -0.03200
C736        C  0.87600104  0.28608538  0.02910352    -0.05900
C737        C  0.87829275  0.30014538  0.01378227    -0.16700
C738        C  0.89014425  0.28020350  0.00196009     0.02200
C739        C  0.88698341  0.18507003  0.02319229     0.12200
C740        C  0.87806133  0.23542126  0.04947961     0.62800
H741        H  0.86852697  0.30261986  0.03810673     0.12200
C742        C  0.89735477  0.29637323  0.98542336     0.54900
H743        H  0.90241208  0.22719928  0.99679726     0.08000
C744        C  0.84893411  0.14456157  0.01958371    -0.05800
C745        C  0.84974691  0.10546342  0.02179618    -0.06500
C746        C  0.88744674  0.10557699  0.02715348    -0.16100
C747        C  0.92587646  0.14643921  0.03060995    -0.01700
C748        C  0.92483248  0.18560124  0.02844730    -0.09300
C749        C  0.80774961  0.14266577  0.01326356     0.65000
H750        H  0.82071348  0.07419233  0.01920830     0.10500
C751        C  0.96820816  0.14927627  0.03611453     0.63400
H752        H  0.95372804  0.21721508  0.03076185     0.07800
F753        F  0.85729955  0.28303387  0.97845320    -0.19600
F754        F  0.91900575  0.27968528  0.97696116    -0.15900
F755        F  0.92270017  0.34180534  0.98502313    -0.19400
F756        F  0.91613533  0.23582432  0.05363982    -0.22700
F757        F  0.84275393  0.19328409  0.05124303    -0.24200
F758        F  0.87265589  0.26299501  0.05948424    -0.18200
F759        F  0.00254046  0.19236318  0.03689652    -0.20700
F760        F  0.98042371  0.12681763  0.02606784    -0.21900
F761        F  0.96223647  0.13133075  0.05069530    -0.19000
F762        F  0.77457126  0.09989353  0.01055196    -0.19100
F763        F  0.81687260  0.16499655  0.99943444    -0.23000
F764        F  0.79242732  0.16160424  0.02365127    -0.24600
C765        C  0.73028419  0.36734429  0.93176003    -0.11400
C766        C  0.72431959  0.33491636  0.94243061     0.11200
C767        C  0.69058055  0.29086638  0.94007780    -0.03200
C768        C  0.66333337  0.28081193  0.92706860    -0.05900
C769        C  0.66920437  0.31311736  0.91622247    -0.16700
C770        C  0.70420226  0.35713670  0.91838409     0.02200
C771        C  0.75487020  0.34753485  0.95575615     0.12200
C772        C  0.68337183  0.25471985  0.95133977     0.62800
H773        H  0.63684083  0.24734135  0.92532541     0.12200
C774        C  0.71614537  0.39275101  0.90631613     0.54900
H775        H  0.75648132  0.40074814  0.93385633     0.08000
C776        C  0.79626144  0.35038616  0.95448300    -0.05800
C777        C  0.82120434  0.35714217  0.96793514    -0.06500
C778        C  0.80695378  0.36310995  0.98236620    -0.16100
C779        C  0.76687737  0.36330682  0.98342731    -0.01700
C780        C  0.74123612  0.35504357  0.97003483    -0.09300
C781        C  0.81378788  0.34616922  0.93897818     0.65000
H782        H  0.85225078  0.35785576  0.96730222     0.10500
C783        C  0.75083201  0.37142921  0.99860785     0.63400
H784        H  0.70993633  0.35381433  0.97060016     0.07800
F785        F  0.75499676  0.43087389  0.90987358    -0.19600
F786        F  0.68353506  0.40348210  0.90523860    -0.15900
F787        F  0.72166285  0.37808268  0.89218210    -0.19400
F788        F  0.67017195  0.26243687  0.96541499    -0.22700
F789        F  0.72179677  0.25374991  0.95331977    -0.24200
F790        F  0.65156128  0.21358867  0.94619449    -0.18200
F791        F  0.70876928  0.36488951  0.99739931    -0.20700
F792        F  0.77848799  0.41443416  0.00318875    -0.21900
F793        F  0.75029960  0.34312601  0.00977749    -0.19000
F794        F  0.85431992  0.34911766  0.94033164    -0.19100
F795        F  0.81858891  0.37957358  0.92932471    -0.23000
F796        F  0.78503796  0.30607224  0.93231461    -0.24600
C797        C  0.89292557  0.57281864  0.17708015    -0.11400
C798        C  0.91695529  0.58972913  0.19070087     0.11200
C799        C  0.90248645  0.60906747  0.20187716    -0.03200
C800        C  0.86441823  0.61138446  0.19877321    -0.05900
C801        C  0.84116802  0.59543470  0.18490591    -0.16700
C802        C  0.85454535  0.57427814  0.17413761     0.02200
C803        C  0.95876051  0.58933705  0.19217309     0.12200
C804        C  0.92771130  0.62836389  0.21674994     0.62800
H805        H  0.85353615  0.62733341  0.20687762     0.12200
C806        C  0.82799773  0.55247605  0.15973734     0.54900
H807        H  0.90515596  0.55923204  0.16852860     0.08000
C808        C  0.95989883  0.54991800  0.19424764    -0.05800
C809        C  0.00082546  0.55202399  0.19389356    -0.06500
C810        C  0.04013160  0.59184148  0.19135437    -0.16100
C811        C  0.03898460  0.63138386  0.18972437    -0.01700
C812        C  0.99805923  0.62919380  0.18995958    -0.09300
C813        C  0.91825706  0.50581862  0.19674922     0.65000
H814        H  0.00237347  0.52220361  0.19522521     0.10500
C815        C  0.08050547  0.67583558  0.18783150     0.63400
H816        H  0.99628399  0.65863913  0.18792424     0.07800
F817        F  0.78446399  0.52465641  0.16363152    -0.19600
F818        F  0.84290857  0.52771370  0.15225773    -0.15900
F819        F  0.83098488  0.58406638  0.14959537    -0.19400
F820        F  0.96676441  0.66655938  0.21363920    -0.22700
F821        F  0.93667419  0.59853553  0.22383608    -0.24200
F822        F  0.90407842  0.63858791  0.22700278    -0.18200
F823        F  0.07237700  0.71023103  0.18958312    -0.20700
F824        F  0.09785518  0.67882786  0.17331577    -0.21900
F825        F  0.11118566  0.68102232  0.19878738    -0.19000
F826        F  0.92747892  0.47294923  0.20035946    -0.19100
F827        F  0.89289413  0.49312071  0.18354733    -0.23000
F828        F  0.89426510  0.50906826  0.20874665    -0.24600
C829        C  0.84572911  0.78513288  0.11268472    -0.11400
C830        C  0.80322553  0.74886931  0.11381829     0.11200
C831        C  0.77100468  0.74302345  0.10288562    -0.03200
C832        C  0.78379398  0.77181326  0.09019086    -0.05900
C833        C  0.82734042  0.80646407  0.08836941    -0.16700
C834        C  0.85833514  0.81469449  0.10027105     0.02200
C835        C  0.79348886  0.71799529  0.12680855     0.12200
C836        C  0.72354537  0.70644205  0.10468655     0.62800
H837        H  0.75996118  0.76689211  0.08143540     0.12200
C838        C  0.90383560  0.85540204  0.10037776     0.54900
H839        H  0.86921578  0.78976980  0.12159864     0.08000
C840        C  0.80243040  0.68311670  0.12591214    -0.05800
C841        C  0.79325617  0.65564221  0.13878460    -0.06500
C842        C  0.77700700  0.66291759  0.15257080    -0.16100
C843        C  0.76881184  0.69846136  0.15352179    -0.01700
C844        C  0.77710277  0.72534851  0.14049612    -0.09300
C845        C  0.82346841  0.67626680  0.11169096     0.65000
H846        H  0.79975656  0.62873232  0.13829414     0.10500
C847        C  0.75325183  0.70928749  0.16833150     0.63400
H848        H  0.77137786  0.75284141  0.14090906     0.07800
F849        F  0.92999075  0.85171074  0.08932408    -0.19600
F850        F  0.92444023  0.86136212  0.11448986    -0.15900
F851        F  0.90054474  0.89232219  0.09751100    -0.19400
F852        F  0.70721886  0.71069662  0.11864909    -0.22700
F853        F  0.72089537  0.66588786  0.10415967    -0.24200
F854        F  0.69697933  0.70765841  0.09320914    -0.18200
F855        F  0.78076197  0.71322085  0.18037118    -0.20700
F856        F  0.71085884  0.67637920  0.17161331    -0.21900
F857        F  0.75320875  0.74853202  0.16723367    -0.19000
F858        F  0.82667604  0.63871256  0.11284129    -0.19100
F859        F  0.86534311  0.71189933  0.10985908    -0.23000
F860        F  0.79899270  0.67221421  0.09871021    -0.24600
C861        C  0.65698397  0.44980408  0.24750186    -0.11400
C862        C  0.64550409  0.46191436  0.26133867     0.11200
C863        C  0.64465292  0.50164941  0.26220958    -0.03200
C864        C  0.65097938  0.52586040  0.24862895    -0.05900
C865        C  0.66009219  0.51252537  0.23455645    -0.16700
C866        C  0.66475990  0.47476452  0.23399724     0.02200
C867        C  0.63363097  0.43179170  0.27468436     0.12200
C868        C  0.63691302  0.51813265  0.27739299     0.62800
H869        H  0.64849607  0.55533434  0.24884693     0.12200
C870        C  0.67613570  0.45984419  0.21916034     0.54900
H871        H  0.65876016  0.41994079  0.24733104     0.08000
C872        C  0.59039963  0.39628251  0.27679095    -0.05800
C873        C  0.58082181  0.37042196  0.29014732    -0.06500
C874        C  0.61340476  0.37787267  0.30106036    -0.16100
C875        C  0.65736930  0.41239843  0.29846184    -0.01700
C876        C  0.66646891  0.43890066  0.28528059    -0.09300
C877        C  0.55494218  0.38522266  0.26476429     0.65000
H878        H  0.54773766  0.34340858  0.29201760     0.10500
C879        C  0.69463095  0.42215983  0.30952506     0.63400
H880        H  0.69948586  0.46564460  0.28307737     0.07800
F881        F  0.64551529  0.45302777  0.20791506    -0.19600
F882        F  0.67653629  0.42096769  0.22110607    -0.15900
F883        F  0.71743810  0.49151049  0.21421723    -0.19400
F884        F  0.66866658  0.52348979  0.28793453    -0.22700
F885        F  0.59598689  0.48821596  0.28314484    -0.24200
F886        F  0.63897982  0.55829609  0.27575064    -0.18200
F887        F  0.73283431  0.46066440  0.30574570    -0.20700
F888        F  0.70372232  0.38823464  0.30910659    -0.21900
F889        F  0.68310088  0.42687439  0.32431067    -0.19000
F890        F  0.51474675  0.35035628  0.26929652    -0.19100
F891        F  0.56671089  0.37368161  0.25111021    -0.23000
F892        F  0.54979439  0.42115253  0.26217691    -0.24600
C893        C  0.45903325  0.59306520  0.20665021    -0.11400
C894        C  0.47315898  0.58039629  0.19355153     0.11200
C895        C  0.44801970  0.56935048  0.17983156    -0.03200
C896        C  0.40945466  0.57201230  0.17967163    -0.05900
C897        C  0.39489352  0.58394437  0.19287665    -0.16700
C898        C  0.42033149  0.59532856  0.20656687     0.02200
C899        C  0.51321128  0.57671544  0.19497132     0.12200
C900        C  0.46131372  0.55380566  0.16558580     0.62800
H901        H  0.38949458  0.56335735  0.16935170     0.12200
C902        C  0.40729032  0.61064714  0.22094014     0.54900
H903        H  0.47848966  0.60065475  0.21706283     0.08000
C904        C  0.55608866  0.61388344  0.19433547    -0.05800
C905        C  0.59231323  0.60789744  0.19682029    -0.06500
C906        C  0.58663709  0.56631564  0.20031983    -0.16100
C907        C  0.54358259  0.52898966  0.20052654    -0.01700
C908        C  0.50759561  0.53507322  0.19796418    -0.09300
C909        C  0.56330193  0.65968603  0.19146391     0.65000
H910        H  0.62535263  0.63597932  0.19664816     0.10500
C911        C  0.53536455  0.48267499  0.20309570     0.63400
H912        H  0.47442288  0.50729550  0.19857306     0.07800
F913        F  0.40023993  0.64489872  0.21727892    -0.19600
F914        F  0.43954261  0.62547001  0.23217050    -0.15900
F915        F  0.36945900  0.57617928  0.22711139    -0.19400
F916        F  0.45901601  0.51411262  0.16860701    -0.22700
F917        F  0.50378964  0.58441338  0.16139544    -0.24200
F918        F  0.43410576  0.54779929  0.15318816    -0.18200
F919        F  0.54387632  0.47752877  0.21825855    -0.20700
F920        F  0.56210265  0.47497057  0.19349342    -0.21900
F921        F  0.49224223  0.45107405  0.19995210    -0.19000
F922        F  0.60745232  0.69074634  0.19014413    -0.19100
F923        F  0.54623755  0.67192513  0.20355830    -0.23000
F924        F  0.54266193  0.66018300  0.17798456    -0.24600
C925        C  0.32798002  0.79027104  0.58215218    -0.11400
C926        C  0.31133521  0.79794741  0.59573874     0.11200
C927        C  0.30498436  0.83460138  0.59661842    -0.03200
C928        C  0.31469731  0.86189690  0.58362160    -0.05900
C929        C  0.33043008  0.85372621  0.56988832    -0.16700
C930        C  0.33704028  0.81719576  0.56904967     0.02200
C931        C  0.30062012  0.76688877  0.60886626     0.12200
C932        C  0.28733891  0.84438487  0.61113421     0.62800
H933        H  0.30947989  0.88972164  0.58399426     0.12200
C934        C  0.35125531  0.80526161  0.55418622     0.54900
H935        H  0.33295592  0.76230076  0.58182070     0.08000
C936        C  0.26048527  0.72636415  0.60963538    -0.05800
C937        C  0.25166944  0.69982112  0.62280176    -0.06500
C938        C  0.28207203  0.71179222  0.63493098    -0.16100
C939        C  0.32276528  0.75193548  0.63395075    -0.01700
C940        C  0.33133451  0.77868316  0.62082407    -0.09300
C941        C  0.22747514  0.71085207  0.59649753     0.65000
H942        H  0.22090634  0.66896651  0.62366321     0.10500
C943        C  0.35630535  0.76746243  0.64689901     0.63400
H944        H  0.36205394  0.80951581  0.61983117     0.07800
F945        F  0.35121473  0.76600303  0.55546385    -0.19600
F946        F  0.39331654  0.83782198  0.55037762    -0.15900
F947        F  0.32275115  0.80070648  0.54242041    -0.19400
F948        F  0.31587314  0.85248102  0.62324984    -0.22700
F949        F  0.24667786  0.80886394  0.61476122    -0.24200
F950        F  0.28258542  0.88091049  0.60939359    -0.18200
F951        F  0.37317941  0.73962536  0.64818281    -0.20700
F952        F  0.33668476  0.76789835  0.66064282    -0.21900
F953        F  0.39106917  0.80956971  0.64430907    -0.19000
F954        F  0.18936089  0.67200873  0.60005284    -0.19100
F955        F  0.24568152  0.70352371  0.58354299    -0.23000
F956        F  0.21611705  0.74227091  0.59315493    -0.24600
C957        C  0.20429776  0.90437224  0.51919387    -0.11400
C958        C  0.18581045  0.91661433  0.53111111     0.11200
C959        C  0.20675390  0.92866059  0.54565737    -0.03200
C960        C  0.24580611  0.92770171  0.54779116    -0.05900
C961        C  0.26439340  0.91535256  0.53589590    -0.16700
C962        C  0.24371796  0.90396957  0.52124646     0.02200
C963        C  0.14336196  0.91460369  0.52819787     0.12200
C964        C  0.18740298  0.94145029  0.55895496     0.62800
H965        H  0.26189356  0.93591191  0.55892584     0.12200
C966        C  0.26206005  0.88992023  0.50801124     0.54900
H967        H  0.18717734  0.89471957  0.50826152     0.08000
C968        C  0.14096928  0.94906793  0.52077130    -0.05800
C969        C  0.09976405  0.94592474  0.51932613    -0.06500
C970        C  0.06099746  0.90918271  0.52470318    -0.16100
C971        C  0.06317958  0.87257273  0.53070846    -0.01700
C972        C  0.10467953  0.87649560  0.53258631    -0.09300
C973        C  0.18175126  0.98884478  0.51437192     0.65000
H974        H  0.09771122  0.97264594  0.51411198     0.10500
C975        C  0.02239514  0.82881031  0.53455071     0.63400
H976        H  0.10740503  0.84981026  0.53764708     0.07800
F977        F  0.30260589  0.92452439  0.50373088    -0.19600
F978        F  0.23496746  0.87739338  0.49519509    -0.15900
F979        F  0.26640335  0.85453652  0.51245875    -0.19400
F980        F  0.14739062  0.90586966  0.56314330    -0.22700
F981        F  0.18132985  0.97585945  0.55465521    -0.24200
F982        F  0.21456039  0.95471406  0.57175768    -0.18200
F983        F  0.03222183  0.79564974  0.53661146    -0.20700
F984        F  0.99238146  0.81614132  0.52261517    -0.21900
F985        F  0.00350600  0.83237626  0.54801448    -0.19000
F986        F  0.17212021  0.01856268  0.50756323    -0.19100
F987        F  0.20069186  0.97549456  0.50328419    -0.23000
F988        F  0.21178584  0.01029858  0.52604090    -0.24600
C989        C  0.45273051  0.07361354  0.47589447    -0.11400
C990        C  0.46914314  0.06372813  0.46272626     0.11200
C991        C  0.47971659  0.02987321  0.46332036    -0.03200
C992        C  0.47329886  0.00695225  0.47721476    -0.05900
C993        C  0.45671121  0.01660877  0.49044870    -0.16700
C994        C  0.44563224  0.05018052  0.48976947     0.02200
C995        C  0.47808925  0.09158180  0.44881386     0.12200
C996        C  0.49858044  0.01852147  0.44947478     0.62800
H997        H  0.48183361  0.98140456  0.47790726     0.12200
C998        C  0.42802690  0.06251936  0.50367131     0.54900
H999        H  0.44618966  0.10053150  0.47524851     0.08000
C1000       C  0.44458393  0.08690311  0.43863860    -0.05800
C1001       C  0.45662611  0.11269239  0.42515562    -0.06500
C1002       C  0.50077120  0.14332459  0.42176140    -0.16100
C1003       C  0.53384876  0.15018196  0.43268787    -0.01700
C1004       C  0.52167082  0.12386256  0.44597018    -0.09300
C1005       C  0.39648897  0.05476365  0.44198480     0.65000
H1006       H  0.43154408  0.10859229  0.41702471     0.10500
C1007       C  0.58172013  0.18569220  0.43076666     0.63400
H1008       H  0.54637151  0.12784042  0.45427348     0.07800
F1009       F  0.42259660  0.09817756  0.50068714    -0.19600
F1010       F  0.45695197  0.07347691  0.51587309    -0.15900
F1011       F  0.38754234  0.02752762  0.50778316    -0.19400
F1012       F  0.54062761  0.05259511  0.44650194    -0.22700
F1013       F  0.47255157  0.01154161  0.43665885    -0.24200
F1014       F  0.50077004  0.98075857  0.45194239    -0.18200
F1015       F  0.60579848  0.19176502  0.44407932    -0.20700
F1016       F  0.58449788  0.22538095  0.42727470    -0.21900
F1017       F  0.60077546  0.17402989  0.41917688    -0.19000
F1018       F  0.36940845  0.05420675  0.43032310    -0.19100
F1019       F  0.38422975  0.06666066  0.45544603    -0.23000
F1020       F  0.38978044  0.01269544  0.44356288    -0.24600
C1021       C  0.57840149  0.94393584  0.53603218    -0.11400
C1022       C  0.59616705  0.93893447  0.52224770     0.11200
C1023       C  0.57533833  0.93657948  0.50808177    -0.03200
C1024       C  0.53897402  0.94267906  0.50811400    -0.05900
C1025       C  0.52188289  0.94947963  0.52180642    -0.16700
C1026       C  0.54093408  0.94860921  0.53612733     0.02200
C1027       C  0.63614792  0.93521330  0.52299132     0.12200
C1028       C  0.59120797  0.92735525  0.49301008     0.62800
H1029       H  0.52330362  0.94199354  0.49730030     0.12200
C1030       C  0.52248961  0.95300951  0.55137809     0.54900
H1031       H  0.59431596  0.94415603  0.54673565     0.08000
C1032       C  0.67877987  0.97279351  0.52316510    -0.05800
C1033       C  0.71514622  0.96660577  0.52319860    -0.06500
C1034       C  0.71001969  0.92438268  0.52349874    -0.16100
C1035       C  0.66734936  0.88678382  0.52339602    -0.01700
C1036       C  0.63093739  0.89298466  0.52324730    -0.09300
C1037       C  0.68582660  0.01910875  0.52367639     0.65000
H1038       H  0.74810335  0.99483622  0.52327821     0.10500
C1039       C  0.66028606  0.84050092  0.52280629     0.63400
H1040       H  0.59791642  0.86485618  0.52319294     0.07800
F1041       F  0.54807071  0.95433831  0.56371526    -0.19600
F1042       F  0.48083827  0.91723364  0.55345200    -0.15900
F1043       F  0.52056063  0.99131668  0.55155262    -0.19400
F1044       F  0.58754706  0.88636308  0.49364076    -0.22700
F1045       F  0.63459198  0.95885368  0.49043518    -0.24200
F1046       F  0.56677924  0.92763174  0.48055436    -0.18200
F1047       F  0.67383789  0.83097893  0.53648010    -0.20700
F1048       F  0.68405497  0.83718123  0.51074474    -0.21900
F1049       F  0.61653139  0.80918625  0.52058413    -0.19000
F1050       F  0.72993444  0.05082707  0.52285939    -0.19100
F1051       F  0.66929566  0.02503428  0.53732458    -0.23000
F1052       F  0.66461653  0.02572847  0.51147218    -0.24600
C1053       C  0.20409079  0.81988068  0.70271981    -0.11400
C1054       C  0.21666735  0.84294422  0.68876250     0.11200
C1055       C  0.23382073  0.82899904  0.67671851    -0.03200
C1056       C  0.23538073  0.79026631  0.67879478    -0.05900
C1057       C  0.22118829  0.76615913  0.69254373    -0.16700
C1058       C  0.20551522  0.78106256  0.70480677     0.02200
C1059       C  0.21055247  0.88120481  0.68703971     0.12200
C1060       C  0.25066487  0.85506134  0.66185892     0.62800
H1061       H  0.24770699  0.77835665  0.66967513     0.12200
C1062       C  0.18847238  0.75517346  0.71969085     0.54900
H1063       H  0.19195002  0.83202736  0.71181659     0.08000
C1064       C  0.16944944  0.87616549  0.68295436    -0.05800
C1065       C  0.16628428  0.91412033  0.68126003    -0.06500
C1066       C  0.20265393  0.95648574  0.68353781    -0.16100
C1067       C  0.24356886  0.96121809  0.68814236    -0.01700
C1068       C  0.24651044  0.92306442  0.68990522    -0.09300
C1069       C  0.12942207  0.83101731  0.68006906     0.65000
H1070       H  0.13520644  0.91097132  0.67792932     0.10500
C1071       C  0.28440443  0.00587087  0.69071210     0.63400
H1072       H  0.27716551  0.92546374  0.69338643     0.07800
F1073       F  0.17006448  0.77305632  0.72925565    -0.19600
F1074       F  0.22255416  0.75522743  0.72759720    -0.15900
F1075       F  0.15649442  0.71224599  0.71644164    -0.19400
F1076       F  0.28636823  0.89608457  0.66501734    -0.22700
F1077       F  0.21817997  0.86027768  0.65499753    -0.24200
F1078       F  0.26383195  0.83426806  0.65140153    -0.18200
F1079       F  0.27853515  0.02619017  0.70337754    -0.20700
F1080       F  0.29266675  0.03195840  0.67780808    -0.21900
F1081       F  0.32120666  0.00229193  0.69344304    -0.19000
F1082       F  0.09243978  0.83370315  0.67670080    -0.19100
F1083       F  0.12021515  0.80479664  0.69296968    -0.23000
F1084       F  0.13730186  0.81097392  0.66777676    -0.24600
C1085       C  0.12321983  0.03743949  0.62528823    -0.11400
C1086       C  0.08112562  0.00002535  0.62507598     0.11200
C1087       C  0.06570961  0.97178994  0.63802013    -0.03200
C1088       C  0.09325954  0.98240224  0.65093774    -0.05900
C1089       C  0.13530990  0.01998241  0.65121931    -0.16700
C1090       C  0.15067482  0.04825023  0.63826717     0.02200
C1091       C  0.05477526  0.99001957  0.61079352     0.12200
C1092       C  0.02103560  0.92992748  0.63798933     0.62800
H1093       H  0.08260863  0.96072907  0.66084300     0.12200
C1094       C  0.19613760  0.08889103  0.63798727     0.54900
H1095       H  0.13441969  0.05801194  0.61510946     0.08000
C1096       C  0.03008511  0.01042822  0.60727318    -0.05800
C1097       C  0.00494909  0.99815990  0.59368391    -0.06500
C1098       C  0.00390336  0.96639809  0.58353015    -0.16100
C1099       C  0.03006016  0.94691337  0.58697670    -0.01700
C1100       C  0.05522808  0.95958068  0.60055660    -0.09300
C1101       C  0.02993351  0.04460642  0.61793577     0.65000
H1102       H  0.98517250  0.01292195  0.59105327     0.10500
C1103       C  0.03223618  0.91316322  0.57658207     0.63400
H1104       H  0.07518246  0.94521457  0.60351592     0.07800
F1105       F  0.19810979  0.11911753  0.64861564    -0.19600
F1106       F  0.20625178  0.10883005  0.62365201    -0.15900
F1107       F  0.22751571  0.07766955  0.64156695    -0.19400
F1108       F  0.02088158  0.90049019  0.62740107    -0.22700
F1109       F  0.98859511  0.93933506  0.63411676    -0.24200
F1110       F  0.01077379  0.90972940  0.65228006    -0.18200
F1111       F  0.06433403  0.90394139  0.58124620    -0.20700
F1112       F  0.04212356  0.92901701  0.56167934    -0.21900
F1113       F  0.99247709  0.87405112  0.57688563    -0.19000
F1114       F  0.00421085  0.06084364  0.61222822    -0.19100
F1115       F  0.07213942  0.07968946  0.61969009    -0.23000
F1116       F  0.01365991  0.02613612  0.63219761    -0.24600
C1117       C  0.19361612  0.24868879  0.69281723    -0.11400
C1118       C  0.22960520  0.29028993  0.69615272     0.11200
C1119       C  0.26967068  0.29427878  0.70107023    -0.03200
C1120       C  0.27301839  0.25627647  0.70166122    -0.05900
C1121       C  0.23720751  0.21429201  0.69836888    -0.16700
C1122       C  0.19635798  0.21018485  0.69406138     0.02200
C1123       C  0.22407362  0.32922099  0.69515024     0.12200
C1124       C  0.30831061  0.33824318  0.70615200     0.62800
H1125       H  0.30376964  0.25912951  0.70508663     0.12200
C1126       C  0.15526749  0.16571727  0.69156028     0.54900
H1127       H  0.16302958  0.24668505  0.68950096     0.08000
C1128       C  0.22817564  0.35121531  0.68108875    -0.05800
C1129       C  0.22673291  0.39048471  0.68136525    -0.06500
C1130       C  0.22234168  0.40851227  0.69526461    -0.16100
C1131       C  0.21711651  0.38549977  0.70930833    -0.01700
C1132       C  0.21704331  0.34557999  0.70885714    -0.09300
C1133       C  0.23462200  0.33341975  0.66597599     0.65000
H1134       H  0.23024464  0.40808532  0.67073720     0.10500
C1135       C  0.21176182  0.40250848  0.72478696     0.63400
H1136       H  0.21334453  0.32747332  0.71937705     0.07800
F1137       F  0.16011072  0.14559690  0.67863687    -0.19600
F1138       F  0.11843941  0.16960252  0.68937776    -0.15900
F1139       F  0.14779977  0.13927896  0.70431697    -0.19400
F1140       F  0.29733146  0.35249869  0.71935804    -0.22700
F1141       F  0.31926717  0.36933722  0.69469274    -0.24200
F1142       F  0.34515595  0.33520284  0.70941153    -0.18200
F1143       F  0.20057085  0.37154077  0.73634813    -0.20700
F1144       F  0.17890230  0.41291713  0.72391040    -0.21900
F1145       F  0.25082001  0.43942610  0.72898472    -0.19000
F1146       F  0.23949824  0.36060587  0.65369145    -0.19100
F1147       F  0.19859043  0.29240241  0.66306888    -0.23000
F1148       F  0.27180715  0.32968498  0.66677890    -0.24600
C1149       C  0.36371577  0.18062520  0.78242124    -0.11400
C1150       C  0.37496095  0.16143562  0.77049453     0.11200
C1151       C  0.41117655  0.15488923  0.77220797    -0.03200
C1152       C  0.43528909  0.16823333  0.78602418    -0.05900
C1153       C  0.42458561  0.18834302  0.79789706    -0.16700
C1154       C  0.38739407  0.19350619  0.79627365     0.02200
C1155       C  0.35070060  0.15297739  0.75582295     0.12200
C1156       C  0.42466768  0.13467848  0.75940868     0.62800
H1157       H  0.46369853  0.16442172  0.78745356     0.12200
C1158       C  0.37241992  0.21256467  0.80894316     0.54900
H1159       H  0.33661950  0.18642894  0.78060796     0.08000
C1160       C  0.30732522  0.11736976  0.75387969    -0.05800
C1161       C  0.28506312  0.11474380  0.74010846    -0.06500
C1162       C  0.30492605  0.14660437  0.72851987    -0.16100
C1163       C  0.34910719  0.18074444  0.73017792    -0.01700
C1164       C  0.37085849  0.18395736  0.74404906    -0.09300
C1165       C  0.28464885  0.08275848  0.76632315     0.65000
H1166       H  0.25139038  0.08862682  0.73849088     0.10500
C1167       C  0.37366666  0.21297824  0.71727987     0.63400
H1168       H  0.40377629  0.21130205  0.74595075     0.07800
F1169       F  0.33020272  0.20417121  0.80628496    -0.19600
F1170       F  0.40014398  0.25765598  0.80956243    -0.15900
F1171       F  0.37242188  0.19402034  0.82299846    -0.19400
F1172       F  0.43880264  0.16219849  0.74674481    -0.22700
F1173       F  0.38936389  0.09446138  0.75517191    -0.24200
F1174       F  0.45852292  0.12799192  0.76394162    -0.18200
F1175       F  0.35735926  0.24096795  0.71524347    -0.20700
F1176       F  0.36899078  0.19021909  0.70375272    -0.21900
F1177       F  0.41812827  0.23840953  0.72043888    -0.19000
F1178       F  0.24336582  0.04991072  0.76172614    -0.19100
F1179       F  0.27969883  0.10181213  0.77951710    -0.23000
F1180       F  0.30942928  0.06342926  0.76973555    -0.24600
C1181       C  0.54461769  0.00945699  0.37483813    -0.11400
C1182       C  0.54582314  0.99020582  0.36087112     0.11200
C1183       C  0.54334478  0.00906603  0.34681506    -0.03200
C1184       C  0.54338430  0.04907914  0.34723904    -0.05900
C1185       C  0.54541858  0.07035137  0.36119707    -0.16700
C1186       C  0.54452933  0.04937682  0.37534450     0.02200
C1187       C  0.55224803  0.95167249  0.36151710     0.12200
C1188       C  0.54064911  0.98696178  0.33149832     0.62800
H1189       H  0.54266281  0.06450767  0.33658831     0.12200
C1190       C  0.54299612  0.06821666  0.39096494     0.54900
H1191       H  0.54541980  0.99355861  0.38542179     0.08000
C1192       C  0.59431696  0.95704763  0.36412730    -0.05800
C1193       C  0.59796062  0.91938957  0.36609765    -0.06500
C1194       C  0.56117535  0.87685347  0.36534444    -0.16100
C1195       C  0.51917573  0.87141243  0.36210137    -0.01700
C1196       C  0.51546815  0.90928013  0.36044924    -0.09300
C1197       C  0.63510512  0.00246345  0.36508477     0.65000
H1198       H  0.62976422  0.92290154  0.36844878     0.10500
C1199       C  0.47823829  0.82617537  0.36092322     0.63400
H1200       H  0.48368125  0.90621091  0.35852176     0.07800
F1201       F  0.53461137  0.03855057  0.40277819    -0.19600
F1202       F  0.50995256  0.07854025  0.39109453    -0.15900
F1203       F  0.58290541  0.10551907  0.39404510    -0.19400
F1204       F  0.50266238  0.94630313  0.33100238    -0.22700
F1205       F  0.57646772  0.98130148  0.32971151    -0.24200
F1206       F  0.53983154  0.01151227  0.31917866    -0.18200
F1207       F  0.47351520  0.80229781  0.37416327    -0.20700
F1208       F  0.48143603  0.80396066  0.34830681    -0.21900
F1209       F  0.44059509  0.82880448  0.35910948    -0.19000
F1210       F  0.67304244  0.00014040  0.36635066    -0.19100
F1211       F  0.63256222  0.02462874  0.37782577    -0.23000
F1212       F  0.63865210  0.02637844  0.35198539    -0.24600
C1213       C  0.74915194  0.83544460  0.43735807    -0.11400
C1214       C  0.71267240  0.84139139  0.43771913     0.11200
C1215       C  0.70309026  0.85724868  0.45131725    -0.03200
C1216       C  0.73125579  0.86769469  0.46405690    -0.05900
C1217       C  0.76811901  0.86244496  0.46364423    -0.16700
C1218       C  0.77742333  0.84596658  0.45011476     0.02200
C1219       C  0.68583557  0.83210128  0.42350335     0.12200
C1220       C  0.66349146  0.86341609  0.45235027     0.62800
H1221       H  0.72456101  0.87988667  0.47456539     0.12200
C1222       C  0.81758197  0.84071984  0.44894175     0.54900
H1223       H  0.75550143  0.82282579  0.42688900     0.08000
C1224       C  0.69828847  0.86358950  0.41158965    -0.05800
C1225       C  0.66989248  0.85404223  0.39894119    -0.06500
C1226       C  0.63013423  0.81386449  0.39768287    -0.16100
C1227       C  0.61850984  0.78161393  0.40938771    -0.01700
C1228       C  0.64690491  0.79140221  0.42211263    -0.09300
C1229       C  0.74146185  0.90704868  0.41225852     0.65000
H1230       H  0.67856862  0.87811077  0.38984722     0.10500
C1231       C  0.57553868  0.73803503  0.40890604     0.63400
H1232       H  0.63856929  0.76766777  0.43130121     0.07800
F1233       F  0.82499470  0.83260576  0.43396043    -0.19600
F1234       F  0.81186104  0.80590539  0.45800900    -0.15900
F1235       F  0.85449297  0.87876353  0.45382457    -0.19400
F1236       F  0.62538856  0.82334632  0.45046542    -0.22700
F1237       F  0.66569393  0.89202050  0.44100862    -0.24200
F1238       F  0.66124509  0.88057478  0.46645988    -0.18200
F1239       F  0.57535821  0.71334174  0.39649213    -0.20700
F1240       F  0.54077480  0.74561017  0.40760773    -0.21900
F1241       F  0.56922713  0.71343080  0.42210453    -0.19000
F1242       F  0.74608381  0.93400928  0.39993273    -0.19100
F1243       F  0.77613984  0.89919178  0.41192385    -0.23000
F1244       F  0.74384626  0.92943223  0.42564799    -0.24600
C1245       C  0.54116241  0.49040108  0.37150975    -0.11400
C1246       C  0.54878305  0.51043597  0.35700948     0.11200
C1247       C  0.56303982  0.49472225  0.34461219    -0.03200
C1248       C  0.56551078  0.45659619  0.34684913    -0.05900
C1249       C  0.55603007  0.43515806  0.36115218    -0.16700
C1250       C  0.54520200  0.45304917  0.37393459     0.02200
C1251       C  0.54221957  0.54840964  0.35516457     0.12200
C1252       C  0.57558528  0.51809280  0.32912644     0.62800
H1253       H  0.57484754  0.44299045  0.33736304     0.12200
C1254       C  0.53761115  0.43304152  0.38995326     0.54900
H1255       H  0.53185914  0.50433901  0.38089214     0.08000
C1256       C  0.50077838  0.54291589  0.35131775    -0.05800
C1257       C  0.49758850  0.58066986  0.34891646    -0.06500
C1258       C  0.53427243  0.62315580  0.35038762    -0.16100
C1259       C  0.57572607  0.62847479  0.35440063    -0.01700
C1260       C  0.57867804  0.59062704  0.35697147    -0.09300
C1261       C  0.46018522  0.49744575  0.34992371     0.65000
H1262       H  0.46620683  0.57731681  0.34591012     0.10500
C1263       C  0.61713623  0.67344681  0.35512860     0.63400
H1264       H  0.60981968  0.59353235  0.36006037     0.07800
F1265       F  0.52324549  0.45336190  0.40017208    -0.19600
F1266       F  0.57643828  0.43777188  0.39560345    -0.15900
F1267       F  0.50626413  0.38888002  0.38949489    -0.19400
F1268       F  0.60971271  0.56080150  0.33104142    -0.22700
F1269       F  0.54011618  0.51897133  0.32274435    -0.24200
F1270       F  0.58922717  0.49741450  0.31879296    -0.18200
F1271       F  0.61475232  0.69740344  0.36732605    -0.20700
F1272       F  0.62202586  0.69590862  0.34151342    -0.21900
F1273       F  0.65436708  0.67019966  0.35718336    -0.19000
F1274       F  0.42351077  0.49965057  0.34561068    -0.19100
F1275       F  0.45149563  0.47608822  0.36395072    -0.23000
F1276       F  0.46675299  0.47273836  0.33900364    -0.24600
C1277       C  0.40415883  0.67032943  0.30389632    -0.11400
C1278       C  0.42473499  0.67558270  0.28959556     0.11200
C1279       C  0.47031368  0.69074156  0.28895713    -0.03200
C1280       C  0.49322274  0.69690691  0.30286689    -0.05900
C1281       C  0.47223098  0.69003923  0.31715188    -0.16700
C1282       C  0.42732526  0.67742660  0.31779089     0.02200
C1283       C  0.39709469  0.66346837  0.27554448     0.12200
C1284       C  0.49464097  0.70088007  0.27371083     0.62800
H1285       H  0.52778916  0.70706410  0.30272828     0.12200
C1286       C  0.40387685  0.67009900  0.33308834     0.54900
H1287       H  0.36942134  0.65944421  0.30405472     0.08000
C1288       C  0.37118301  0.61919492  0.27075317    -0.05800
C1289       C  0.34306484  0.60964122  0.25806215    -0.06500
C1290       C  0.34149216  0.64293092  0.24955606    -0.16100
C1291       C  0.37037033  0.68778411  0.25375745    -0.01700
C1292       C  0.39646087  0.69692668  0.26705580    -0.09300
C1293       C  0.37330659  0.58216442  0.27898799     0.65000
H1294       H  0.32177775  0.57562747  0.25476631     0.10500
C1295       C  0.37575441  0.72621733  0.24406937     0.63400
H1296       H  0.41701531  0.73054702  0.27093547     0.07800
F1297       F  0.40458344  0.63630154  0.34098070    -0.19600
F1298       F  0.36050921  0.65908423  0.33116785    -0.15900
F1299       F  0.42467183  0.70810060  0.34182733    -0.19400
F1300       F  0.49485450  0.73648620  0.26687623    -0.22700
F1301       F  0.47443425  0.66509065  0.26391841    -0.24200
F1302       F  0.53779203  0.71120292  0.27566085    -0.18200
F1303       F  0.33837263  0.72956776  0.24497544    -0.20700
F1304       F  0.38367908  0.72021651  0.22892185    -0.21900
F1305       F  0.41086706  0.76587269  0.24896307    -0.19000
F1306       F  0.34926216  0.54236593  0.27137618    -0.19100
F1307       F  0.35673601  0.57739327  0.29372461    -0.23000
F1308       F  0.41632674  0.59145987  0.27981846    -0.24600
C1309       C  0.81691444  0.03546475  0.10347171    -0.11400
C1310       C  0.79268261  0.00326380  0.11452819     0.11200
C1311       C  0.78161039  0.95909152  0.11194028    -0.03200
C1312       C  0.79809166  0.94923898  0.09874857    -0.05900
C1313       C  0.82267128  0.98143520  0.08766043    -0.16700
C1314       C  0.83125219  0.02516499  0.08980181     0.02200
C1315       C  0.77477013  0.01564897  0.12780350     0.12200
C1316       C  0.75061004  0.92216839  0.12261134     0.62800
H1317       H  0.79086753  0.91582812  0.09678101     0.12200
C1318       C  0.85314834  0.06029978  0.07744774     0.54900
H1319       H  0.82342703  0.06862977  0.10547678     0.08000
C1320       C  0.79764128  0.03121234  0.14191664    -0.05800
C1321       C  0.77588849  0.03751028  0.15442455    -0.06500
C1322       C  0.73272144  0.02933360  0.15299306    -0.16100
C1323       C  0.71167631  0.01771426  0.13841274    -0.01700
C1324       C  0.73315271  0.01084804  0.12606661    -0.09300
C1325       C  0.84470711  0.04140452  0.14364197     0.65000
H1326       H  0.79195431  0.04771779  0.16552863     0.10500
C1327       C  0.66635057  0.01148515  0.13579474     0.63400
H1328       H  0.71687341  0.00006278  0.11500824     0.07800
F1329       F  0.89730381  0.07371322  0.07655718    -0.19600
F1330       F  0.84958946  0.09697907  0.08057848    -0.15900
F1331       F  0.83337353  0.04382653  0.06332388    -0.19400
F1332       F  0.70951849  0.91811737  0.12208673    -0.22700
F1333       F  0.76607326  0.93105145  0.13756928    -0.24200
F1334       F  0.74602875  0.88208162  0.11839168    -0.18200
F1335       F  0.65792044  0.01265594  0.12027040    -0.20700
F1336       F  0.66261729  0.04452042  0.14302133    -0.21900
F1337       F  0.63515771  0.97106952  0.14152500    -0.19000
F1338       F  0.86046655  0.05519382  0.15842214    -0.19100
F1339       F  0.87128351  0.07461165  0.13353037    -0.23000
F1340       F  0.84758959  0.00445594  0.14041047    -0.24600
C1341       C  0.44593204  0.84048764  0.19652802    -0.11400
C1342       C  0.48320915  0.83774626  0.19308744     0.11200
C1343       C  0.47988717  0.79623862  0.19131329    -0.03200
C1344       C  0.43791031  0.75847678  0.19132903    -0.05900
C1345       C  0.39998856  0.76115240  0.19395960    -0.16700
C1346       C  0.40411753  0.80269208  0.19737355     0.02200
C1347       C  0.52504702  0.87924890  0.19079044     0.12200
C1348       C  0.52055570  0.79210479  0.18959497     0.62800
H1349       H  0.43438118  0.72640509  0.18941266     0.12200
C1350       C  0.36497508  0.80774898  0.20157500     0.54900
H1351       H  0.45000717  0.87281438  0.19835081     0.08000
C1352       C  0.53679102  0.89954981  0.17617270    -0.05800
C1353       C  0.57724289  0.93846479  0.17463789    -0.06500
C1354       C  0.60568319  0.95799261  0.18718480    -0.16100
C1355       C  0.59280830  0.93883645  0.20203036    -0.01700
C1356       C  0.55242767  0.89928276  0.20353212    -0.09300
C1357       C  0.50618099  0.88102264  0.16236392     0.65000
H1358       H  0.58664717  0.95463128  0.16358192     0.10500
C1359       C  0.62132550  0.95947445  0.21615418     0.63400
H1360       H  0.54173738  0.88356184  0.21466774     0.07800
F1361       F  0.37648558  0.85150460  0.20296118    -0.19600
F1362       F  0.34794087  0.78772186  0.21559391    -0.15900
F1363       F  0.33298724  0.78888191  0.19031522    -0.19400
F1364       F  0.54764931  0.81090280  0.20221738    -0.22700
F1365       F  0.54328467  0.81341170  0.17641556    -0.24200
F1366       F  0.51007157  0.74856421  0.18869545    -0.18200
F1367       F  0.62334080  0.99890863  0.21947325    -0.20700
F1368       F  0.66323781  0.96694090  0.21352899    -0.21900
F1369       F  0.60468423  0.93260242  0.22897030    -0.19000
F1370       F  0.52560679  0.90430350  0.14902022    -0.19100
F1371       F  0.46872769  0.88329045  0.16507281    -0.23000
F1372       F  0.49439317  0.83764746  0.15983361    -0.24600
C1373       C  0.62859912  0.15155922  0.24403137    -0.11400
C1374       C  0.65497961  0.17385519  0.25676326     0.11200
C1375       C  0.70018732  0.18763371  0.25668494    -0.03200
C1376       C  0.71775948  0.17883004  0.24360692    -0.05900
C1377       C  0.69171160  0.15673476  0.23072845    -0.16700
C1378       C  0.64633460  0.14308318  0.23081090     0.02200
C1379       C  0.63455923  0.18145637  0.27036774     0.12200
C1380       C  0.72962444  0.21112033  0.27044098     0.62800
H1381       H  0.75232977  0.18904048  0.24337392     0.12200
C1382       C  0.61719439  0.12153638  0.21688596     0.54900
H1383       H  0.59399947  0.14113860  0.24453694     0.08000
C1384       C  0.63054264  0.21933405  0.27178973    -0.05800
C1385       C  0.61687341  0.22747837  0.28600069    -0.06500
C1386       C  0.60611923  0.19829067  0.29844269    -0.16100
C1387       C  0.60831434  0.15941115  0.29671035    -0.01700
C1388       C  0.62240580  0.15157635  0.28257186    -0.09300
C1389       C  0.64064866  0.25074416  0.25836325     0.65000
H1390       H  0.61440281  0.25673481  0.28752851     0.10500
C1391       C  0.59681248  0.12683349  0.30978444     0.63400
H1392       H  0.62523612  0.12253412  0.28101569     0.07800
F1393       F  0.57566624  0.11585469  0.21888261    -0.19600
F1394       F  0.61251567  0.08057869  0.21437487    -0.15900
F1395       F  0.63564596  0.14763660  0.20401623    -0.19400
F1396       F  0.71622165  0.18323350  0.28300768    -0.22700
F1397       F  0.72751679  0.24823799  0.27414950    -0.24200
F1398       F  0.77312704  0.22429550  0.26749348    -0.18200
F1399       F  0.55202004  0.10543967  0.31227243    -0.20700
F1400       F  0.61867490  0.14846491  0.32309066    -0.21900
F1401       F  0.60840138  0.09550002  0.30647559    -0.19000
F1402       F  0.63557233  0.28606370  0.26233042    -0.19100
F1403       F  0.61243363  0.22866055  0.24628973    -0.23000
F1404       F  0.68338940  0.26715434  0.25343645    -0.24600
C1405       C  0.90069409  0.25724836  0.19418710    -0.11400
C1406       C  0.90473497  0.29874952  0.19564588     0.11200
C1407       C  0.86713196  0.30264275  0.19782194    -0.03200
C1408       C  0.82630827  0.26396380  0.19935692    -0.05900
C1409       C  0.82210073  0.22207840  0.19835038    -0.16700
C1410       C  0.85980704  0.21844619  0.19546340     0.02200
C1411       C  0.94909032  0.33758471  0.19460460     0.12200
C1412       C  0.87014159  0.34732805  0.19837552     0.62800
H1413       H  0.79711592  0.26612763  0.20134981     0.12200
C1414       C  0.85755816  0.17427319  0.19413914     0.54900
H1415       H  0.93019433  0.25567327  0.19214457     0.08000
C1416       C  0.97764653  0.35301887  0.20744819    -0.05800
C1417       C  0.01974771  0.38954163  0.20545597    -0.06500
C1418       C  0.03370379  0.41067807  0.19115162    -0.16100
C1419       C  0.00489908  0.39533793  0.17835255    -0.01700
C1420       C  0.96296764  0.35835856  0.18029031    -0.09300
C1421       C  0.96381137  0.33103783  0.22313454     0.65000
H1422       H  0.04227400  0.40208167  0.21511396     0.10500
C1423       C  0.01776838  0.41833147  0.16287246     0.63400
H1424       H  0.94044085  0.34531413  0.17064800     0.07800
F1425       F  0.83729277  0.14889994  0.20700485    -0.19600
F1426       F  0.89889579  0.17895728  0.19301444    -0.15900
F1427       F  0.83426039  0.15258932  0.18106487    -0.19400
F1428       F  0.88468239  0.36823146  0.18433602    -0.22700
F1429       F  0.89916182  0.37330395  0.20973246    -0.24200
F1430       F  0.82984262  0.34356438  0.20144816    -0.18200
F1431       F  0.98239017  0.40200419  0.15287287    -0.20700
F1432       F  0.04991585  0.41205975  0.15629072    -0.21900
F1433       F  0.03346586  0.46291603  0.16470002    -0.19000
F1434       F  0.99558713  0.35363252  0.23424856    -0.19100
F1435       F  0.95670694  0.28870290  0.22227645    -0.23000
F1436       F  0.92557914  0.32935961  0.22788421    -0.24600
C1437       C  0.88800328  0.28933192  0.36377988    -0.11400
C1438       C  0.85295916  0.24969673  0.35822172     0.11200
C1439       C  0.86135230  0.21830555  0.35118357    -0.03200
C1440       C  0.90528957  0.22914720  0.34905765    -0.05900
C1441       C  0.94026361  0.26992857  0.35381364    -0.16700
C1442       C  0.93178569  0.29976802  0.36186527     0.02200
C1443       C  0.80876110  0.24505946  0.35811698     0.12200
C1444       C  0.82423052  0.17426557  0.34553854     0.62800
H1445       H  0.91273818  0.20645405  0.34321926     0.12200
C1446       C  0.96896129  0.34279757  0.36806984     0.54900
H1447       H  0.88080087  0.31288992  0.36907128     0.08000
C1448       C  0.78172957  0.23307149  0.37129286    -0.05800
C1449       C  0.74185745  0.23306088  0.37036520    -0.06500
C1450       C  0.72912136  0.24662113  0.35697456    -0.16100
C1451       C  0.75636577  0.25778446  0.34361541    -0.01700
C1452       C  0.79565437  0.25668444  0.34456046    -0.09300
C1453       C  0.79585919  0.22239126  0.38645680     0.65000
H1454       H  0.72113547  0.22399771  0.38044945     0.10500
C1455       C  0.74483497  0.27051917  0.32829004     0.63400
H1456       H  0.81752025  0.26620171  0.33474267     0.07800
F1457       F  0.95353979  0.36481052  0.37698214    -0.19600
F1458       F  0.99277633  0.36972359  0.35594023    -0.15900
F1459       F  0.99639341  0.33472856  0.37716265    -0.19400
F1460       F  0.80356344  0.18065970  0.33311446    -0.22700
F1461       F  0.79383881  0.15335383  0.35713107    -0.24200
F1462       F  0.83943339  0.14656698  0.34099009    -0.18200
F1463       F  0.77348786  0.27434521  0.31667452    -0.20700
F1464       F  0.74706518  0.31079471  0.32960822    -0.21900
F1465       F  0.70308408  0.23863021  0.32378855    -0.19000
F1466       F  0.76244254  0.20619229  0.39725085    -0.19100
F1467       F  0.83126675  0.26009074  0.39236443    -0.23000
F1468       F  0.80791796  0.19099345  0.38430084    -0.24600
C1469       C  0.12020379  0.45202284  0.27720947    -0.11400
C1470       C  0.12737943  0.41643526  0.27874532     0.11200
C1471       C  0.14756673  0.40636390  0.26655476    -0.03200
C1472       C  0.16090298  0.43319535  0.25330385    -0.05900
C1473       C  0.15303258  0.46841058  0.25160463    -0.16700
C1474       C  0.13256932  0.47831022  0.26384973     0.02200
C1475       C  0.10977932  0.38837444  0.29276598     0.12200
C1476       C  0.15358375  0.36657069  0.26729634     0.62800
H1477       H  0.17628141  0.42585431  0.24386785     0.12200
C1478       C  0.12381839  0.51643251  0.26299881     0.54900
H1479       H  0.10375475  0.45841137  0.28653293     0.08000
C1480       C  0.13156847  0.40054669  0.30720234    -0.05800
C1481       C  0.11031448  0.37434472  0.32023357    -0.06500
C1482       C  0.06823715  0.33682779  0.31923133    -0.16100
C1483       C  0.04751271  0.32367194  0.30461295    -0.01700
C1484       C  0.06843474  0.35020663  0.29168948    -0.09300
C1485       C  0.17698149  0.44096336  0.30881287     0.65000
H1486       H  0.12600934  0.38353471  0.33142010     0.10500
C1487       C  0.00394267  0.28131118  0.30249494     0.63400
H1488       H  0.05219363  0.34174563  0.28058279     0.07800
F1489       F  0.11086521  0.52455706  0.27708041    -0.19600
F1490       F  0.09058236  0.50672037  0.25251771    -0.15900
F1491       F  0.16149078  0.55450233  0.25855709    -0.19400
F1492       F  0.11298906  0.32850933  0.26722823    -0.22700
F1493       F  0.17575434  0.36775548  0.28057913    -0.24200
F1494       F  0.17732838  0.36497266  0.25486361    -0.18200
F1495       F  0.97035065  0.28593944  0.30866269    -0.20700
F1496       F  0.00521152  0.24690855  0.30972616    -0.21900
F1497       F  0.99462317  0.27040683  0.28708141    -0.19000
F1498       F  0.19242436  0.44656176  0.32378975    -0.19100
F1499       F  0.17589884  0.47832038  0.30463696    -0.23000
F1500       F  0.20633549  0.43684417  0.29941331    -0.24600
C1501       C  0.94564806  0.07501405  0.44189031    -0.11400
C1502       C  0.98974886  0.10856355  0.44219808     0.11200
C1503       C  0.01558527  0.11399169  0.45539868    -0.03200
C1504       C  0.99709724  0.08310949  0.46744494    -0.05900
C1505       C  0.95331581  0.04824873  0.46693009    -0.16700
C1506       C  0.92667327  0.04467236  0.45405409     0.02200
C1507       C  0.00839274  0.13599421  0.42814020     0.12200
C1508       C  0.06229844  0.15240565  0.45674843     0.62800
H1509       H  0.01667238  0.08625122  0.47750346     0.12200
C1510       C  0.87880344  0.00857159  0.45282494     0.54900
H1511       H  0.92636045  0.07242800  0.43180987     0.08000
C1512       C  0.02188839  0.12061068  0.41537065    -0.05800
C1513       C  0.03935297  0.14796783  0.40240443    -0.06500
C1514       C  0.04390898  0.18994850  0.40186035    -0.16100
C1515       C  0.03081081  0.20554454  0.41466099    -0.01700
C1516       C  0.01236866  0.17776625  0.42754655    -0.09300
C1517       C  0.01865411  0.07582328  0.41557184     0.65000
H1518       H  0.05023913  0.13699933  0.39257501     0.10500
C1519       C  0.03803090  0.25188126  0.41493637     0.63400
H1520       H  0.00142209  0.18865322  0.43737580     0.07800
F1521       F  0.87491102  0.96793896  0.45531082    -0.19600
F1522       F  0.86141354  0.00762476  0.43842751    -0.15900
F1523       F  0.85408591  0.01556582  0.46360293    -0.19400
F1524       F  0.06200733  0.19156551  0.45640492    -0.22700
F1525       F  0.08748568  0.15176767  0.44466239    -0.24200
F1526       F  0.08203275  0.15111374  0.47037761    -0.18200
F1527       F  0.02872772  0.26258546  0.42924078    -0.20700
F1528       F  0.01111054  0.25551049  0.40417042    -0.21900
F1529       F  0.08141560  0.28195861  0.41153155    -0.19000
F1530       F  0.03525255  0.06814789  0.40222910    -0.19100
F1531       F  0.97526314  0.04290986  0.41692404    -0.23000
F1532       F  0.04222090  0.07334653  0.42788130    -0.24600
C1533       C  0.22497259  0.24753340  0.35264462    -0.11400
C1534       C  0.25254422  0.25516604  0.36533757     0.11200
C1535       C  0.24169514  0.26528905  0.37986461    -0.03200
C1536       C  0.20179709  0.26475502  0.38138416    -0.05900
C1537       C  0.17312919  0.25530070  0.36886609    -0.16700
C1538       C  0.18508935  0.24733719  0.35413129     0.02200
C1539       C  0.29332222  0.25354374  0.36301100     0.12200
C1540       C  0.27195196  0.27632933  0.39370978     0.62800
H1541       H  0.19226978  0.27120804  0.39250483     0.12200
C1542       C  0.15547244  0.23724643  0.34018459     0.54900
H1543       H  0.23483013  0.24115120  0.34157766     0.08000
C1544       C  0.29382906  0.21355878  0.36349760    -0.05800
C1545       C  0.33438865  0.21515676  0.36214684    -0.06500
C1546       C  0.37382717  0.25522268  0.36026358    -0.16100
C1547       C  0.37297284  0.29511270  0.35943685    -0.01700
C1548       C  0.33238212  0.29335076  0.36061020    -0.09300
C1549       C  0.25183019  0.16960386  0.36559457     0.65000
H1550       H  0.33572655  0.18507518  0.36266946     0.10500
C1551       C  0.41477160  0.33957875  0.35821936     0.63400
H1552       H  0.33081293  0.32330436  0.36005161     0.07800
F1553       F  0.17151116  0.22622021  0.32743617    -0.19600
F1554       F  0.15240565  0.27382949  0.33644172    -0.15900
F1555       F  0.11404623  0.20219748  0.34334851    -0.19400
F1556       F  0.31175709  0.31378623  0.39072688    -0.22700
F1557       F  0.27908200  0.24189135  0.39682334    -0.24200
F1558       F  0.25442534  0.28409092  0.40679510    -0.18200
F1559       F  0.43370517  0.34406669  0.34390193    -0.20700
F1560       F  0.44393159  0.34303497  0.36951552    -0.21900
F1561       F  0.40688875  0.37407378  0.36016812    -0.19000
F1562       F  0.25981022  0.13486941  0.36583051    -0.19100
F1563       F  0.22322226  0.16262329  0.35360109    -0.23000
F1564       F  0.23189797  0.16932962  0.37932956    -0.24600
C1565       C  0.57911798  0.94686824  0.05181294    -0.11400
C1566       C  0.58907475  0.93971171  0.03686464     0.11200
C1567       C  0.56010810  0.93411873  0.02462370    -0.03200
C1568       C  0.52103095  0.93437093  0.02792234    -0.05900
C1569       C  0.51015240  0.93987516  0.04302495    -0.16700
C1570       C  0.54063328  0.94804796  0.05510703     0.02200
C1571       C  0.62907053  0.93610149  0.03457484     0.12200
C1572       C  0.57017018  0.92709693  0.00821537     0.62800
H1573       H  0.49782415  0.92854456  0.01876854     0.12200
C1574       C  0.53313405  0.95798480  0.07148604     0.54900
H1575       H  0.60151172  0.95067707  0.06102871     0.08000
C1576       C  0.67166241  0.97351016  0.03353051    -0.05800
C1577       C  0.70769137  0.96729633  0.03101982    -0.06500
C1578       C  0.70292499  0.92513063  0.03087844    -0.16100
C1579       C  0.66043032  0.88766604  0.03290971    -0.01700
C1580       C  0.62408732  0.89394208  0.03431919    -0.09300
C1581       C  0.67923560  0.01961918  0.03585505     0.65000
H1582       H  0.74044417  0.99558342  0.02997795     0.10500
C1583       C  0.65317728  0.84131857  0.03392066     0.63400
H1584       H  0.59134976  0.86590177  0.03575170     0.07800
F1585       F  0.57170960  0.97725203  0.07994368    -0.19600
F1586       F  0.50343629  0.91935038  0.07876310    -0.15900
F1587       F  0.51733902  0.98692146  0.07145663    -0.19400
F1588       F  0.57005347  0.88781069  0.00720173    -0.22700
F1589       F  0.61101057  0.96116858  0.00390547    -0.24200
F1590       F  0.53952742  0.92562192  0.99787601    -0.18200
F1591       F  0.67005809  0.83634374  0.04766050    -0.20700
F1592       F  0.67364966  0.83344406  0.02178770    -0.21900
F1593       F  0.60898276  0.80975260  0.03341844    -0.19000
F1594       F  0.72274305  0.05138526  0.03364385    -0.19100
F1595       F  0.66807032  0.02392343  0.05074851    -0.23000
F1596       F  0.65392133  0.02761526  0.02566079    -0.24600
C1597       C  0.33284277  0.75353290  0.11195473    -0.11400
C1598       C  0.31904013  0.78456651  0.11152315     0.11200
C1599       C  0.28537654  0.77989356  0.12154195    -0.03200
C1600       C  0.26958168  0.74642995  0.13274919    -0.05900
C1601       C  0.28506396  0.71652519  0.13383553    -0.16700
C1602       C  0.31615102  0.71912536  0.12280597     0.02200
C1603       C  0.33844046  0.81942874  0.09955377     0.12200
C1604       C  0.26641895  0.81021564  0.12046774     0.62800
H1605       H  0.24532907  0.74394504  0.14095966     0.12200
C1606       C  0.33081832  0.68526023  0.12198540     0.54900
H1607       H  0.35721036  0.75672714  0.10364963     0.08000
C1608       C  0.38067381  0.85711792  0.10118995    -0.05800
C1609       C  0.39900856  0.88563428  0.08851883    -0.06500
C1610       C  0.37645642  0.87777641  0.07444633    -0.16100
C1611       C  0.33310712  0.84136897  0.07317603    -0.01700
C1612       C  0.31538556  0.81220646  0.08569266    -0.09300
C1613       C  0.40644599  0.86683681  0.11614817     0.65000
H1614       H  0.43167170  0.91406827  0.08939975     0.10500
C1615       C  0.30604877  0.83221979  0.05858651     0.63400
H1616       H  0.28342787  0.78277969  0.08469237     0.07800
F1617       F  0.35791325  0.69051862  0.13431119    -0.19600
F1618       F  0.35399271  0.68942329  0.10861725    -0.15900
F1619       F  0.29449293  0.64328563  0.12216573    -0.19400
F1620       F  0.25051209  0.80894164  0.10582491    -0.22700
F1621       F  0.29861285  0.85292424  0.12381661    -0.24200
F1622       F  0.23179279  0.79782957  0.13055994    -0.18200
F1623       F  0.32845640  0.82836159  0.04617237    -0.20700
F1624       F  0.29780655  0.86620483  0.05598908    -0.21900
F1625       F  0.26593234  0.79362681  0.05963544    -0.19000
F1626       F  0.44694001  0.90504584  0.11519069    -0.19100
F1627       F  0.41369129  0.83271503  0.11971125    -0.23000
F1628       F  0.38315812  0.87186886  0.12799269    -0.24600
C1629       C  0.46147754  0.04583908  0.96816974    -0.11400
C1630       C  0.44716978  0.07445595  0.96319943     0.11200
C1631       C  0.41718955  0.08027111  0.97227296    -0.03200
C1632       C  0.40159172  0.05608124  0.98595342    -0.05900
C1633       C  0.41403093  0.02561741  0.99069537    -0.16700
C1634       C  0.44567952  0.02128255  0.98187963     0.02200
C1635       C  0.46233210  0.09621250  0.94801432     0.12200
C1636       C  0.40048113  0.11070746  0.96729086     0.62800
H1637       H  0.37811403  0.05982521  0.99286447     0.12200
C1638       C  0.46173713  0.99006249  0.98642555     0.54900
H1639       H  0.48448012  0.04218341  0.96094553     0.08000
C1640       C  0.50330521  0.13518519  0.94606452    -0.05800
C1641       C  0.51427860  0.15495683  0.93140177    -0.06500
C1642       C  0.48534821  0.13705428  0.91884988    -0.16100
C1643       C  0.44483779  0.09736345  0.92079573    -0.01700
C1644       C  0.43425185  0.07735372  0.93537906    -0.09300
C1645       C  0.53525768  0.15540713  0.95938926     0.65000
H1646       H  0.54530631  0.18507914  0.92967837     0.10500
C1647       C  0.41249031  0.07656578  0.90766498     0.63400
H1648       H  0.40322235  0.04729689  0.93718532     0.07800
F1649       F  0.49074748  0.98985753  0.97571632    -0.19600
F1650       F  0.42649681  0.94763200  0.98756781    -0.15900
F1651       F  0.48349336  0.00287344  0.00039046    -0.19400
F1652       F  0.37508435  0.09422426  0.95417390    -0.22700
F1653       F  0.43535847  0.15227424  0.96422448    -0.24200
F1654       F  0.37497013  0.11477664  0.97856908    -0.18200
F1655       F  0.37902151  0.03461197  0.91132191    -0.20700
F1656       F  0.43360301  0.07345101  0.89470256    -0.21900
F1657       F  0.39399968  0.10222416  0.90447645    -0.19000
F1658       F  0.57093909  0.19572479  0.95547912    -0.19100
F1659       F  0.55045077  0.12756002  0.96365675    -0.23000
F1660       F  0.51482479  0.16187986  0.97187059    -0.24600
C1661       C  0.11468370  0.90011751  0.03119176    -0.11400
C1662       C  0.14993509  0.93797518  0.02477991     0.11200
C1663       C  0.14310638  0.97153490  0.01885856    -0.03200
C1664       C  0.10106913  0.96661806  0.02009849    -0.05900
C1665       C  0.06547064  0.92892398  0.02670415    -0.16700
C1666       C  0.07230228  0.89469233  0.03222769     0.02200
C1667       C  0.19350755  0.94101991  0.02396163     0.12200
C1668       C  0.17995422  0.01203242  0.01104528     0.62800
H1669       H  0.09571802  0.99248169  0.01583932     0.12200
C1670       C  0.03526654  0.85212372  0.03885658     0.54900
H1671       H  0.12082458  0.87472041  0.03540384     0.08000
C1672       C  0.22454282  0.95922057  0.03607107    -0.05800
C1673       C  0.26672883  0.96499251  0.03383538    -0.06500
C1674       C  0.27760832  0.95095632  0.02026841    -0.16100
C1675       C  0.24503568  0.92880130  0.00881069    -0.01700
C1676       C  0.20360464  0.92497681  0.01074710    -0.09300
C1677       C  0.21234910  0.97037146  0.05150466     0.65000
H1678       H  0.29159190  0.98046906  0.04268626     0.10500
C1679       C  0.25334251  0.90764357  0.99495281     0.63400
H1680       H  0.17870994  0.90963052  0.00189591     0.07800
F1681       F  0.02213134  0.86046952  0.05284093    -0.19600
F1682       F  0.04806997  0.82131787  0.04135714    -0.15900
F1683       F  0.00011441  0.83379129  0.02874496    -0.19400
F1684       F  0.19437452  0.99944650  0.99827155    -0.22700
F1685       F  0.21469991  0.03440498  0.02110692    -0.24200
F1686       F  0.16641872  0.04085190  0.00620518    -0.18200
F1687       F  0.21523743  0.88179928  0.98665533    -0.20700
F1688       F  0.26938597  0.88095568  0.99984208    -0.21900
F1689       F  0.28347642  0.93962890  0.98519824    -0.19000
F1690       F  0.24814780  0.99057409  0.06130704    -0.19100
F1691       F  0.18071145  0.93197413  0.05841803    -0.23000
F1692       F  0.19584099  0.99835125  0.04962048    -0.24600
C1693       C  0.32433369  0.45736907  0.59078270    -0.11400
C1694       C  0.33472113  0.50041581  0.59434874     0.11200
C1695       C  0.36388784  0.53563881  0.58478542    -0.03200
C1696       C  0.37939180  0.52597049  0.57130353    -0.05900
C1697       C  0.36892438  0.48278086  0.56751270    -0.16700
C1698       C  0.34145015  0.44778656  0.57762618     0.02200
C1699       C  0.31692123  0.50800300  0.60876258     0.12200
C1700       C  0.37939975  0.58332558  0.58894478     0.62800
H1701       H  0.40077223  0.55261707  0.56369657     0.12200
C1702       C  0.33164539  0.40095879  0.57511754     0.54900
H1703       H  0.30310483  0.43130607  0.59862059     0.08000
C1704       C  0.27407555  0.50187822  0.60963206    -0.05800
C1705       C  0.26089581  0.51280141  0.62340323    -0.06500
C1706       C  0.28923116  0.52979913  0.63609972    -0.16100
C1707       C  0.33118657  0.53348322  0.63552804    -0.01700
C1708       C  0.34398895  0.52176402  0.62183338    -0.09300
C1709       C  0.24268510  0.48453765  0.59605210     0.65000
H1710       H  0.22867557  0.50945944  0.62421737     0.10500
C1711       C  0.36207772  0.54903770  0.64928811     0.63400
H1712       H  0.37598856  0.52460281  0.62101528     0.07800
F1713       F  0.30483965  0.38302177  0.56238300    -0.19600
F1714       F  0.31040610  0.37428973  0.58764943    -0.15900
F1715       F  0.37040260  0.40070364  0.57294743    -0.19400
F1716       F  0.40113226  0.59370471  0.60292664    -0.22700
F1717       F  0.34386909  0.58971452  0.58995537    -0.24200
F1718       F  0.40822083  0.61235952  0.57810028    -0.18200
F1719       F  0.39798033  0.54369003  0.64693992    -0.20700
F1720       F  0.34011149  0.52508797  0.66220540    -0.21900
F1721       F  0.37761085  0.59322526  0.65193556    -0.19000
F1722       F  0.20250227  0.48062660  0.59951320    -0.19100
F1723       F  0.23516377  0.44337512  0.59188814    -0.23000
F1724       F  0.26051782  0.51285826  0.58368992    -0.24600
C1725       C  0.57340867  0.58079818  0.52709378    -0.11400
C1726       C  0.57750034  0.62246472  0.52796436     0.11200
C1727       C  0.54008159  0.62644622  0.53061753    -0.03200
C1728       C  0.49975518  0.58804445  0.53336399    -0.05900
C1729       C  0.49575023  0.54625366  0.53302796    -0.16700
C1730       C  0.53290705  0.54222940  0.52958529     0.02200
C1731       C  0.62179460  0.66150354  0.52648518     0.12200
C1732       C  0.54277843  0.67096478  0.53043123     0.62800
H1733       H  0.47080253  0.59031134  0.53578068     0.12200
C1734       C  0.53040386  0.49784945  0.52906193     0.54900
H1735       H  0.60258495  0.57892366  0.52470029     0.08000
C1736       C  0.65023892  0.67882434  0.53930229    -0.05800
C1737       C  0.69077610  0.71749836  0.53731629    -0.06500
C1738       C  0.70432947  0.73798509  0.52287580    -0.16100
C1739       C  0.67689267  0.71892343  0.50982062    -0.01700
C1740       C  0.63553502  0.68100355  0.51195606    -0.09300
C1741       C  0.63806942  0.65622257  0.55492428     0.65000
H1742       H  0.71263162  0.73195594  0.54707428     0.10500
C1743       C  0.69072940  0.73829443  0.49378471     0.63400
H1744       H  0.61344319  0.66605377  0.50229243     0.07800
F1745       F  0.57150049  0.50223060  0.52743204    -0.19600
F1746       F  0.50502063  0.47375734  0.51666776    -0.15900
F1747       F  0.51211212  0.47495586  0.54255123    -0.19400
F1748       F  0.55624026  0.68992127  0.51604952    -0.22700
F1749       F  0.57249396  0.69848830  0.54135461    -0.24200
F1750       F  0.50255519  0.66734398  0.53355044    -0.18200
F1751       F  0.72558814  0.73379110  0.48889227    -0.20700
F1752       F  0.70316416  0.78236595  0.49388290    -0.21900
F1753       F  0.65699789  0.71719608  0.48320269    -0.19000
F1754       F  0.67019354  0.67931312  0.56587459    -0.19100
F1755       F  0.63288884  0.61467285  0.55368649    -0.23000
F1756       F  0.59926608  0.65247996  0.56011618    -0.24600
C1757       C  0.14478730  0.14155296  0.52745258    -0.11400
C1758       C  0.14207951  0.17980466  0.52872116     0.11200
C1759       C  0.10056446  0.17678320  0.52950643    -0.03200
C1760       C  0.06271629  0.13479009  0.52916870    -0.05900
C1761       C  0.06539377  0.09646793  0.52743051    -0.16700
C1762       C  0.10706907  0.09971439  0.52676153     0.02200
C1763       C  0.18331224  0.22208271  0.52659258     0.12200
C1764       C  0.09627703  0.21762321  0.53020439     0.62800
H1765       H  0.03052341  0.13160930  0.52966225     0.12200
C1766       C  0.11202015  0.05956956  0.52502028     0.54900
H1767       H  0.17700535  0.14501279  0.52633683     0.08000
C1768       C  0.21512704  0.24199575  0.53838444    -0.05800
C1769       C  0.25637453  0.27813698  0.53454764    -0.06500
C1770       C  0.26697501  0.29315132  0.51929137    -0.16100
C1771       C  0.23463573  0.27356394  0.50758855    -0.01700
C1772       C  0.19321005  0.23834115  0.51153559    -0.09300
C1773       C  0.20600778  0.22443305  0.55477375     0.65000
H1774       H  0.28143002  0.29376229  0.54333013     0.10500
C1775       C  0.24356644  0.28858415  0.49090661     0.63400
H1776       H  0.16865836  0.22151846  0.50266805     0.07800
F1777       F  0.15508900  0.06980722  0.52715010    -0.19600
F1778       F  0.09918402  0.04264069  0.51034510    -0.15900
F1779       F  0.08642443  0.02800630  0.53579813    -0.19400
F1780       F  0.11248863  0.24175798  0.51682071    -0.22700
F1781       F  0.11966659  0.24346293  0.54260238    -0.24200
F1782       F  0.05296156  0.20708966  0.53181470    -0.18200
F1783       F  0.26969579  0.27421207  0.48419577    -0.20700
F1784       F  0.26438815  0.33399533  0.49007313    -0.21900
F1785       F  0.20509396  0.27170635  0.48244703    -0.19000
F1786       F  0.24142380  0.24900599  0.56441753    -0.19100
F1787       F  0.19733554  0.18148628  0.55500769    -0.23000
F1788       F  0.17018242  0.22564024  0.56061264    -0.24600
C1789       C  0.43578230  0.38081810  0.46199628    -0.11400
C1790       C  0.43423780  0.34056700  0.45969481     0.11200
C1791       C  0.41521192  0.30742469  0.47112870    -0.03200
C1792       C  0.39761414  0.31557831  0.48444399    -0.05900
C1793       C  0.39846850  0.35557270  0.48668945    -0.16700
C1794       C  0.41749129  0.38873662  0.47521661     0.02200
C1795       C  0.45365314  0.33416572  0.44535844     0.12200
C1796       C  0.41318960  0.26347432  0.46919366     0.62800
H1797       H  0.38268766  0.29048985  0.49325137     0.12200
C1798       C  0.41644369  0.43126732  0.47648459     0.54900
H1799       H  0.45097518  0.40583214  0.45318098     0.08000
C1800       C  0.43008897  0.32037137  0.43131207    -0.05800
C1801       C  0.44897713  0.31035928  0.41877410    -0.06500
C1802       C  0.49116243  0.31543106  0.41964967    -0.16100
C1803       C  0.51592636  0.33240846  0.43341246    -0.01700
C1804       C  0.49645933  0.34125105  0.44606179    -0.09300
C1805       C  0.38537570  0.31649907  0.42957374     0.65000
H1806       H  0.43088385  0.29853282  0.40807994     0.10500
C1807       C  0.56200401  0.33978876  0.43504389     0.63400
H1808       H  0.51420633  0.35305132  0.45681696     0.07800
F1809       F  0.43210831  0.45652711  0.46327623    -0.19600
F1810       F  0.44227138  0.45608762  0.48868209    -0.15900
F1811       F  0.37369034  0.42180200  0.47875464    -0.19400
F1812       F  0.45520528  0.26993321  0.46842187    -0.22700
F1813       F  0.39089042  0.24316676  0.45581269    -0.24200
F1814       F  0.39175660  0.23526738  0.48136013    -0.18200
F1815       F  0.58982519  0.37195242  0.42483655    -0.20700
F1816       F  0.56174412  0.30101939  0.43207152    -0.21900
F1817       F  0.57856322  0.35357338  0.44973799    -0.19000
F1818       F  0.36821238  0.30269425  0.41494956    -0.19100
F1819       F  0.38908001  0.35703578  0.43213822    -0.23000
F1820       F  0.35613260  0.28655666  0.44006890    -0.24600
C1821       C  0.63746692  0.44369773  0.74400591    -0.11400
C1822       C  0.66048116  0.45528707  0.75800702     0.11200
C1823       C  0.70304206  0.49291575  0.75875660    -0.03200
C1824       C  0.72100660  0.51807231  0.74534156    -0.05900
C1825       C  0.69811786  0.50645287  0.73130123    -0.16700
C1826       C  0.65550468  0.46877652  0.73055374     0.02200
C1827       C  0.64075178  0.42500712  0.77130804     0.12200
C1828       C  0.73003472  0.50549785  0.77348473     0.62800
H1829       H  0.75380395  0.54655138  0.74559053     0.12200
C1830       C  0.62975452  0.45417603  0.71557489     0.54900
H1831       H  0.60534658  0.41427169  0.74368383     0.08000
C1832       C  0.60975469  0.42648474  0.78124982    -0.05800
C1833       C  0.59399161  0.39751051  0.79392924    -0.06500
C1834       C  0.60760180  0.36672038  0.79673220    -0.16100
C1835       C  0.63648158  0.36343546  0.78597818    -0.01700
C1836       C  0.65264548  0.39301106  0.77353883    -0.09300
C1837       C  0.59357427  0.45858330  0.77844628     0.65000
H1838       H  0.57149105  0.39938869  0.80195495     0.10500
C1839       C  0.64995892  0.32865899  0.78719606     0.63400
H1840       H  0.67542471  0.39184457  0.76544354     0.07800
F1841       F  0.61736206  0.48426972  0.71133318    -0.19600
F1842       F  0.59211210  0.41336582  0.71697351    -0.15900
F1843       F  0.65522433  0.45118378  0.70404656    -0.19400
F1844       F  0.73951259  0.47302365  0.77730510    -0.22700
F1845       F  0.70694217  0.51042642  0.78541556    -0.24200
F1846       F  0.76938485  0.54471900  0.77191486    -0.18200
F1847       F  0.66968178  0.32572340  0.77380135    -0.20700
F1848       F  0.61338438  0.28777852  0.78977699    -0.21900
F1849       F  0.67975869  0.33906680  0.79907817    -0.19000
F1850       F  0.56271817  0.45402371  0.78926248    -0.19100
F1851       F  0.57426737  0.45122497  0.76406235    -0.23000
F1852       F  0.62833645  0.50132906  0.77913411    -0.24600
C1853       C  0.87524197  0.53292712  0.69406415    -0.11400
C1854       C  0.91254854  0.57492872  0.69514811     0.11200
C1855       C  0.90773100  0.61232981  0.69676794    -0.03200
C1856       C  0.86519458  0.60597397  0.69854102    -0.05900
C1857       C  0.82799106  0.56367046  0.69840940    -0.16700
C1858       C  0.83273256  0.52656958  0.69562072     0.02200
C1859       C  0.95629568  0.57852127  0.69469041     0.12200
C1860       C  0.94734275  0.65855754  0.69642709     0.62800
H1861       H  0.86065225  0.63392857  0.70027929     0.12200
C1862       C  0.79306568  0.48065767  0.69397804     0.54900
H1863       H  0.87985265  0.50501165  0.69231941     0.08000
C1864       C  0.97545310  0.57207815  0.70800857    -0.05800
C1865       C  0.01682766  0.57563200  0.70672950    -0.06500
C1866       C  0.03955414  0.58507548  0.69261705    -0.16100
C1867       C  0.02010006  0.59176907  0.67924518    -0.01700
C1868       C  0.97838795  0.58774346  0.68058118    -0.09300
C1869       C  0.95223099  0.56140231  0.72351117     0.65000
H1870       H  0.03184832  0.57109408  0.71691167     0.10500
C1871       C  0.04249402  0.60293581  0.66359380     0.63400
H1872       H  0.96256752  0.59214214  0.67059481     0.07800
F1873       F  0.77129066  0.46682613  0.70788810    -0.19600
F1874       F  0.80492904  0.45033547  0.68942144    -0.15900
F1875       F  0.76477399  0.48099722  0.68299510    -0.19400
F1876       F  0.96759476  0.66626360  0.68221806    -0.22700
F1877       F  0.97706026  0.66335900  0.70774099    -0.24200
F1878       F  0.93561620  0.69020271  0.69881554    -0.18200
F1879       F  0.01543379  0.60333825  0.65210473    -0.20700
F1880       F  0.05401092  0.57204668  0.65953937    -0.21900
F1881       F  0.07957049  0.64436234  0.66411578    -0.19000
F1882       F  0.97682105  0.55661537  0.73498609    -0.19100
F1883       F  0.91253845  0.52245542  0.72253030    -0.23000
F1884       F  0.94465695  0.59481652  0.72784767    -0.24600
C1885       C  0.52988979  0.57647134  0.67190402    -0.11400
C1886       C  0.52111874  0.58332818  0.68706545     0.11200
C1887       C  0.55127211  0.58936976  0.69890497    -0.03200
C1888       C  0.59087690  0.59118709  0.69490973    -0.05900
C1889       C  0.60127455  0.58760419  0.67953518    -0.16700
C1890       C  0.56973931  0.57905718  0.66780280     0.02200
C1891       C  0.48045635  0.58519182  0.68989550     0.12200
C1892       C  0.54194011  0.59445802  0.71561878     0.62800
H1893       H  0.61482230  0.59698189  0.70377799     0.12200
C1894       C  0.57745146  0.57250319  0.65102587     0.54900
H1895       H  0.50568484  0.57081511  0.66314384     0.08000
C1896       C  0.47798388  0.62303348  0.68619065    -0.05800
C1897       C  0.43758636  0.62149283  0.68794945    -0.06500
C1898       C  0.39969197  0.58390485  0.69340619    -0.16100
C1899       C  0.40242637  0.54589815  0.69718845    -0.01700
C1900       C  0.44289906  0.54732143  0.69521094    -0.09300
C1901       C  0.51789697  0.66491115  0.68036876     0.65000
H1902       H  0.43528738  0.64993513  0.68495167     0.10500
C1903       C  0.36296289  0.50344570  0.70278700     0.63400
H1904       H  0.44559125  0.51857727  0.69765591     0.07800
F1905       F  0.60850923  0.61216369  0.64467416    -0.19600
F1906       F  0.53946059  0.55666924  0.64234481    -0.15900
F1907       F  0.59166294  0.54241167  0.64993687    -0.19400
F1908       F  0.50423021  0.55706208  0.72041202    -0.22700
F1909       F  0.53626564  0.63038680  0.71720121    -0.24200
F1910       F  0.57592258  0.60057692  0.72524441    -0.18200
F1911       F  0.37208763  0.46957739  0.70394867    -0.20700
F1912       F  0.32839434  0.49018411  0.69259848    -0.21900
F1913       F  0.35055418  0.50984272  0.71721599    -0.19000
F1914       F  0.50874493  0.69836910  0.67799369    -0.19100
F1915       F  0.53198109  0.65703002  0.66651879    -0.23000
F1916       F  0.55160617  0.67952120  0.69099806    -0.24600
C1917       C  0.79269080  0.71987963  0.63600118    -0.11400
C1918       C  0.77115289  0.70702710  0.62174032     0.11200
C1919       C  0.73195047  0.66587083  0.62029168    -0.03200
C1920       C  0.71423714  0.63981534  0.63351904    -0.05900
C1921       C  0.73472533  0.65340668  0.64793569    -0.16700
C1922       C  0.77491084  0.69378357  0.64926318     0.02200
C1923       C  0.78939985  0.73788012  0.60855698     0.12200
C1924       C  0.70841462  0.65010658  0.60491828     0.62800
H1925       H  0.68364515  0.60874960  0.63278198     0.12200
C1926       C  0.79782898  0.71012933  0.66468334     0.54900
H1927       H  0.82307980  0.75113170  0.63670144     0.08000
C1928       C  0.78196081  0.77363189  0.60681512    -0.05800
C1929       C  0.79724479  0.79944183  0.59342451    -0.06500
C1930       C  0.81964440  0.79066588  0.58185996    -0.16100
C1931       C  0.82703691  0.75471798  0.58365441    -0.01700
C1932       C  0.81247897  0.72953177  0.59720908    -0.09300
C1933       C  0.75823143  0.78462491  0.61907788     0.65000
H1934       H  0.79226596  0.82721392  0.59196524     0.10500
C1935       C  0.84860312  0.74164777  0.57119538     0.63400
H1936       H  0.81824304  0.70235324  0.59896058     0.07800
F1937       F  0.76914634  0.71137086  0.67527198    -0.19600
F1938       F  0.83405307  0.75205989  0.66361998    -0.15900
F1939       F  0.81200731  0.68229405  0.66997242    -0.19400
F1940       F  0.73504660  0.64483268  0.59449657    -0.22700
F1941       F  0.69812588  0.68050328  0.59919385    -0.24200
F1942       F  0.66980751  0.61010396  0.60624433    -0.18200
F1943       F  0.84316845  0.70037366  0.57386970    -0.20700
F1944       F  0.89316177  0.77164952  0.57075721    -0.21900
F1945       F  0.83004489  0.74031806  0.55701029    -0.19000
F1946       F  0.75099733  0.81811951  0.61443077    -0.19100
F1947       F  0.78321665  0.79812937  0.63237284    -0.23000
F1948       F  0.71790679  0.74804758  0.62229486    -0.24600
C1949       C  0.22904995  0.91748260  0.86051085    -0.11400
C1950       C  0.23071364  0.95768844  0.85818892     0.11200
C1951       C  0.19160441  0.95963885  0.85813560    -0.03200
C1952       C  0.15181688  0.92108686  0.86148144    -0.05900
C1953       C  0.15036956  0.88118373  0.86450602    -0.16700
C1954       C  0.18936619  0.87893407  0.86386511     0.02200
C1955       C  0.27446975  0.99784662  0.85766645     0.12200
C1956       C  0.19211282  0.00219448  0.85455512     0.62800
H1957       H  0.12143602  0.92176564  0.86181923     0.12200
C1958       C  0.18958928  0.83680411  0.86754068     0.54900
H1959       H  0.25959421  0.91710209  0.86034550     0.08000
C1960       C  0.29636720  0.01914518  0.87138261    -0.05800
C1961       C  0.33790252  0.05706361  0.87029784    -0.06500
C1962       C  0.35922204  0.07316709  0.85610187    -0.16100
C1963       C  0.33740037  0.05074256  0.84230139    -0.01700
C1964       C  0.29495424  0.01350817  0.84340598    -0.09300
C1965       C  0.27644297  0.00092031  0.88712458     0.65000
H1966       H  0.35460775  0.07390464  0.88069021     0.10500
C1967       C  0.35791663  0.06579249  0.82646232     0.63400
H1968       H  0.27746604  0.99577851  0.83315308     0.07800
F1969       F  0.16939900  0.82030055  0.88157833    -0.19600
F1970       F  0.23186052  0.84377257  0.86842222    -0.15900
F1971       F  0.16749694  0.80585649  0.85617832    -0.19400
F1972       F  0.20780969  0.01569502  0.83979195    -0.22700
F1973       F  0.21891980  0.03484704  0.86481298    -0.24200
F1974       F  0.15054311  0.99701749  0.85545818    -0.18200
F1975       F  0.32877103  0.04203949  0.81476414    -0.20700
F1976       F  0.39380789  0.06005760  0.82506478    -0.21900
F1977       F  0.37087303  0.10963150  0.82435821    -0.19000
F1978       F  0.30208984  0.02797970  0.89896618    -0.19100
F1979       F  0.27251766  0.96009268  0.88914561    -0.23000
F1980       F  0.23536429  0.99659779  0.88835674    -0.24600
C1981       C  0.94878298  0.81107541  0.95076157    -0.11400
C1982       C  0.96657475  0.84155047  0.93869590     0.11200
C1983       C  0.96893478  0.88282157  0.94022193    -0.03200
C1984       C  0.95580697  0.89320814  0.95422757    -0.05900
C1985       C  0.93917072  0.86324283  0.96654729    -0.16700
C1986       C  0.93499987  0.82106539  0.96469458     0.02200
C1987       C  0.98560680  0.83066557  0.92511958     0.12200
C1988       C  0.98518469  0.91564216  0.92705269     0.62800
H1989       H  0.95801321  0.92486800  0.95561777     0.12200
C1990       C  0.91737299  0.78699437  0.97746096     0.54900
H1991       H  0.94658373  0.77945791  0.94923549     0.08000
C1992       C  0.02862489  0.83703907  0.92561050    -0.05800
C1993       C  0.04606001  0.82880639  0.91225719    -0.06500
C1994       C  0.02185475  0.81379614  0.89852207    -0.16100
C1995       C  0.97835258  0.80633577  0.89810391    -0.01700
C1996       C  0.96081187  0.81462126  0.91151886    -0.09300
C1997       C  0.05611718  0.85272960  0.94021145     0.65000
H1998       H  0.07917138  0.83426219  0.91240602     0.10500
C1999       C  0.95146907  0.79182034  0.88337677     0.63400
H2000       H  0.92781669  0.80945367  0.91142618     0.07800
F2001       F  0.92296283  0.75161920  0.97414320    -0.19600
F2002       F  0.87293722  0.77118313  0.97934983    -0.15900
F2003       F  0.93926269  0.80558820  0.99109481    -0.19400
F2004       F  0.95771734  0.89744856  0.91448562    -0.22700
F2005       F  0.02730270  0.92631986  0.92294660    -0.24200
F2006       F  0.98585417  0.95413771  0.93097040    -0.18200
F2007       F  0.94281601  0.75021124  0.87927338    -0.20700
F2008       F  0.97448451  0.82104811  0.87163839    -0.21900
F2009       F  0.91169541  0.79036121  0.88504414    -0.19000
F2010       F  0.09796034  0.85950861  0.93796299    -0.19100
F2011       F  0.03625241  0.82154011  0.95166925    -0.23000
F2012       F  0.06012734  0.89200566  0.94510454    -0.24600
C2013       C  0.85460241  0.57512453  0.84211926    -0.11400
C2014       C  0.84606507  0.55226214  0.85608870     0.11200
C2015       C  0.87915544  0.56655471  0.86750806    -0.03200
C2016       C  0.92049037  0.60337645  0.86436438    -0.05900
C2017       C  0.92957108  0.62500507  0.85012452    -0.16700
C2018       C  0.89598675  0.61177410  0.83895216     0.02200
C2019       C  0.80372571  0.51072488  0.85763208     0.12200
C2020       C  0.87134785  0.54211434  0.88267044     0.62800
H2021       H  0.94668746  0.61456309  0.87277593     0.12200
C2022       C  0.90356597  0.63677888  0.82394296     0.54900
H2023       H  0.82878131  0.56321116  0.83353778     0.08000
C2024       C  0.76433699  0.50959650  0.86168816    -0.05800
C2025       C  0.72516744  0.46858809  0.86199814    -0.06500
C2026       C  0.72439264  0.42938565  0.85801449    -0.16100
C2027       C  0.76432531  0.43081255  0.85421993    -0.01700
C2028       C  0.80325508  0.47174526  0.85399548    -0.09300
C2029       C  0.76363449  0.55156573  0.86524240     0.65000
H2030       H  0.69451610  0.46702159  0.86488298     0.10500
C2031       C  0.76651576  0.38960799  0.85067757     0.63400
H2032       H  0.83392723  0.47387430  0.85071492     0.07800
F2033       F  0.86507938  0.62155876  0.81560910    -0.19600
F2034       F  0.93320235  0.63211007  0.81488618    -0.15900
F2035       F  0.91993753  0.68095190  0.82702893    -0.19400
F2036       F  0.86501746  0.50057842  0.87997896    -0.22700
F2037       F  0.83462813  0.53811245  0.88992297    -0.24200
F2038       F  0.90663151  0.56384545  0.89261422    -0.18200
F2039       F  0.74778228  0.37296469  0.83645673    -0.20700
F2040       F  0.74455848  0.35828086  0.86192888    -0.21900
F2041       F  0.80935078  0.39806032  0.85028662    -0.19000
F2042       F  0.72249348  0.54284377  0.86995611    -0.19100
F2043       F  0.77501592  0.57764421  0.85222341    -0.23000
F2044       F  0.79315838  0.57480358  0.87685879    -0.24600
C2045       C  0.16166109  0.66072249  0.78090336    -0.11400
C2046       C  0.12430372  0.66504050  0.77972643     0.11200
C2047       C  0.10436235  0.66055568  0.76512934    -0.03200
C2048       C  0.12127434  0.64949179  0.75228252    -0.05900
C2049       C  0.15778404  0.64381492  0.75355387    -0.16700
C2050       C  0.17871425  0.64985200  0.76803905     0.02200
C2051       C  0.10547043  0.67214989  0.79408987     0.12200
C2052       C  0.06527010  0.66720884  0.76316524     0.62800
H2053       H  0.10615279  0.64525311  0.74106589     0.12200
C2054       C  0.21779548  0.64320390  0.77000963     0.54900
H2055       H  0.17677990  0.66502389  0.79211755     0.08000
C2056       C  0.07848728  0.63691725  0.80405301    -0.05800
C2057       C  0.05920376  0.64526434  0.81686024    -0.06500
C2058       C  0.06617038  0.68758204  0.82011895    -0.16100
C2059       C  0.09431437  0.72310216  0.81027770    -0.01700
C2060       C  0.11385860  0.71464289  0.79753043    -0.09300
C2061       C  0.06997111  0.59063077  0.80108608     0.65000
H2062       H  0.03817567  0.61843417  0.82446818     0.10500
C2063       C  0.10255672  0.76941919  0.81269886     0.63400
H2064       H  0.13538460  0.74113903  0.78989068     0.07800
F2065       F  0.23119853  0.64764973  0.78522660    -0.19600
F2066       F  0.25277505  0.67410028  0.76143567    -0.15900
F2067       F  0.20680112  0.60144327  0.76510786    -0.19400
F2068       F  0.07726464  0.70999639  0.76696807    -0.22700
F2069       F  0.03127530  0.63857579  0.77262940    -0.24200
F2070       F  0.04996196  0.65975191  0.74814182    -0.18200
F2071       F  0.12681503  0.78704629  0.82598051    -0.20700
F2072       F  0.06301054  0.76860819  0.81386414    -0.21900
F2073       F  0.12574761  0.79700645  0.80058919    -0.19000
F2074       F  0.04015524  0.56050199  0.81144466    -0.19100
F2075       F  0.10876175  0.59005494  0.80246448    -0.23000
F2076       F  0.05325340  0.57708842  0.78641445    -0.24600
C2077       C  0.41544118  0.16790267  0.27475467    -0.11400
C2078       C  0.37701946  0.17046446  0.27497963     0.11200
C2079       C  0.36617728  0.18629486  0.28828537    -0.03200
C2080       C  0.39500146  0.19976256  0.30096035    -0.05900
C2081       C  0.43301814  0.19635822  0.30083799    -0.16700
C2082       C  0.44394162  0.18078373  0.28745539     0.02200
C2083       C  0.34684971  0.15127063  0.26167095     0.12200
C2084       C  0.32398054  0.18791943  0.28925217     0.62800
H2085       H  0.38739969  0.21185495  0.31130157     0.12200
C2086       C  0.48554894  0.17804337  0.28644316     0.54900
H2087       H  0.42235144  0.15457690  0.26458024     0.08000
C2088       C  0.35357923  0.17415065  0.24759895    -0.05800
C2089       C  0.32707290  0.15123265  0.23485018    -0.06500
C2090       C  0.29586591  0.10610713  0.23564340    -0.16100
C2091       C  0.28896484  0.08345567  0.24985073    -0.01700
C2092       C  0.31459047  0.10673020  0.26263819    -0.09300
C2093       C  0.38946211  0.22204026  0.24594619     0.65000
H2094       H  0.33196696  0.16791075  0.22391985     0.10500
C2095       C  0.25505639  0.03489944  0.25165306     0.63400
H2096       H  0.31102736  0.08976716  0.27342955     0.07800
F2097       F  0.52123529  0.21719020  0.29133297    -0.19600
F2098       F  0.49386269  0.17046077  0.27150541    -0.15900
F2099       F  0.48140970  0.14392220  0.29555843    -0.19400
F2100       F  0.28816337  0.14598511  0.28777809    -0.22700
F2101       F  0.32274862  0.21406701  0.27763159    -0.24200
F2102       F  0.32033326  0.20503106  0.30317689    -0.18200
F2103       F  0.26931691  0.00951012  0.24427926    -0.20700
F2104       F  0.21531302  0.02624201  0.24545654    -0.21900
F2105       F  0.24804074  0.02234048  0.26698055    -0.19000
F2106       F  0.39055967  0.23784624  0.23125610    -0.19100
F2107       F  0.43003557  0.22646542  0.24890240    -0.23000
F2108       F  0.38246445  0.24787591  0.25621222    -0.24600
C2109       C  0.22054103  0.82643762  0.20803304    -0.11400
C2110       C  0.23051613  0.85202971  0.19472013     0.11200
C2111       C  0.23989355  0.83739893  0.18083280    -0.03200
C2112       C  0.23567069  0.79541302  0.18048542    -0.05900
C2113       C  0.22511858  0.76936786  0.19380043    -0.16700
C2114       C  0.21838304  0.78550740  0.20795704     0.02200
C2115       C  0.23464180  0.89584198  0.19618486     0.12200
C2116       C  0.25486828  0.86632907  0.16658486     0.62800
H2117       H  0.24185601  0.78309105  0.16990753     0.12200
C2118       C  0.20873167  0.75999219  0.22296656     0.54900
H2119       H  0.21544321  0.83951395  0.21863101     0.08000
C2120       C  0.19775261  0.90164875  0.19593784    -0.05800
C2121       C  0.20451524  0.94432729  0.19799847    -0.06500
C2122       C  0.24660628  0.98049228  0.20076099    -0.16100
C2123       C  0.28351517  0.97443034  0.20091910    -0.01700
C2124       C  0.27658722  0.93184225  0.19882083    -0.09300
C2125       C  0.15151133  0.86270175  0.19411567     0.65000
H2126       H  0.17671670  0.94952178  0.19809509     0.10500
C2127       C  0.33022365  0.01264207  0.20267374     0.63400
H2128       H  0.30399543  0.92606003  0.19929434     0.07800
F2129       F  0.19775160  0.77937047  0.23468751    -0.19600
F2130       F  0.24538153  0.75840635  0.22769531    -0.15900
F2131       F  0.17389902  0.71778263  0.22094604    -0.19400
F2132       F  0.29276878  0.90565893  0.16969866    -0.22700
F2133       F  0.22244476  0.87488001  0.16185682    -0.24200
F2134       F  0.26411349  0.84654575  0.15459531    -0.18200
F2135       F  0.33669166  0.03027940  0.21730698    -0.20700
F2136       F  0.33795639  0.04474383  0.19191309    -0.21900
F2137       F  0.36092002  0.99961933  0.20037723    -0.19000
F2138       F  0.12059558  0.87587412  0.19317866    -0.19100
F2139       F  0.14119167  0.83497908  0.20665631    -0.23000
F2140       F  0.14858282  0.83958458  0.18086020    -0.24600
C2141       C  0.01887171  0.01701879  0.11410216    -0.11400
C2142       C  0.05142585  0.00543986  0.11539871     0.11200
C2143       C  0.05422636  0.97794189  0.10412513    -0.03200
C2144       C  0.02628720  0.96566483  0.09123471    -0.05900
C2145       C  0.99582955  0.97999771  0.08923351    -0.16700
C2146       C  0.99091060  0.00498460  0.10118169     0.02200
C2147       C  0.08429389  0.02572377  0.12802119     0.12200
C2148       C  0.08747920  0.96272733  0.10547949     0.62800
H2149       H  0.02917937  0.94581667  0.08229140     0.12200
C2150       C  0.95653245  0.01897530  0.10054721     0.54900
H2151       H  0.01682298  0.03728695  0.12308728     0.08000
C2152       C  0.11918197  0.06980732  0.12699219    -0.05800
C2153       C  0.14788609  0.08822711  0.13955880    -0.06500
C2154       C  0.14299237  0.06423118  0.15307416    -0.16100
C2155       C  0.10938262  0.01928369  0.15381736    -0.01700
C2156       C  0.08003867  0.00101808  0.14128155    -0.09300
C2157       C  0.12510886  0.09798987  0.11291682     0.65000
H2158       H  0.17377387  0.12239494  0.13912205     0.10500
C2159       C  0.10366359  0.99101651  0.16783248     0.63400
H2160       H  0.05309308  0.96736813  0.14178368     0.07800
F2161       F  0.96803438  0.05136341  0.08953834    -0.19600
F2162       F  0.95266737  0.03580042  0.11450793    -0.15900
F2163       F  0.91589646  0.98320230  0.09702742    -0.19400
F2164       F  0.08016786  0.93878922  0.11887419    -0.22700
F2165       F  0.12952311  0.99875918  0.10576439    -0.24200
F2166       F  0.08465737  0.93613392  0.09325151    -0.18200
F2167       F  0.06725567  0.94928572  0.16649743    -0.20700
F2168       F  0.09844699  0.01035612  0.18092146    -0.21900
F2169       F  0.14017656  0.98639575  0.16950426    -0.19000
F2170       F  0.16434414  0.13765067  0.11342311    -0.19100
F2171       F  0.09124777  0.10701038  0.11217194    -0.23000
F2172       F  0.12509287  0.07623043  0.09964882    -0.24600
C2173       C  0.24476938  0.35829232  0.19189915    -0.11400
C2174       C  0.20555210  0.32062127  0.18757844     0.11200
C2175       C  0.16779508  0.32373427  0.18442035    -0.03200
C2176       C  0.17106488  0.36521579  0.18532977    -0.05900
C2177       C  0.21041021  0.40314480  0.18958049    -0.16700
C2178       C  0.24824742  0.39986594  0.19278154     0.02200
C2179       C  0.20559637  0.27856400  0.18613084     0.12200
C2180       C  0.12403780  0.28332989  0.18047530     0.62800
H2181       H  0.14248045  0.36821867  0.18301528     0.12200
C2182       C  0.29260887  0.43995818  0.19652355     0.54900
H2183       H  0.27296087  0.35478360  0.19441447     0.08000
C2184       C  0.22234613  0.26863182  0.17286362    -0.05800
C2185       C  0.22058153  0.22782748  0.17210631    -0.06500
C2186       C  0.20413842  0.19767157  0.18433527    -0.16100
C2187       C  0.18882082  0.20829269  0.19783217    -0.01700
C2188       C  0.18967412  0.24876083  0.19845778    -0.09300
C2189       C  0.24181730  0.30093449  0.15956209     0.65000
H2190       H  0.23205732  0.21899670  0.16188982     0.10500
C2191       C  0.17117105  0.17690494  0.21139794     0.63400
H2192       H  0.17804975  0.25764293  0.20861995     0.07800
F2193       F  0.32585221  0.42988294  0.19675952    -0.19600
F2194       F  0.29128770  0.45627196  0.21087877    -0.15900
F2195       F  0.30332769  0.47223407  0.18550901    -0.19400
F2196       F  0.10863211  0.25579764  0.19312700    -0.22700
F2197       F  0.12885706  0.26089637  0.16826030    -0.24200
F2198       F  0.09274831  0.29430584  0.17639811    -0.18200
F2199       F  0.20508606  0.17390046  0.21816930    -0.20700
F2200       F  0.13905430  0.13559841  0.20651454    -0.21900
F2201       F  0.15280627  0.19109604  0.22246452    -0.19000
F2202       F  0.25441723  0.28390277  0.14752314    -0.19100
F2203       F  0.27856030  0.33908953  0.16450715    -0.23000
F2204       F  0.21127897  0.31115059  0.15398657    -0.24600
C2205       C  0.31203887  0.00774508  0.36885702    -0.11400
C2206       C  0.29314543  0.99543403  0.35417718     0.11200
C2207       C  0.31234827  0.02426993  0.34155052    -0.03200
C2208       C  0.35131477  0.06431690  0.34399582    -0.05900
C2209       C  0.37092802  0.07653941  0.35862387    -0.16700
C2210       C  0.35099013  0.04802615  0.37135323     0.02200
C2211       C  0.25315135  0.95192743  0.35228069     0.12200
C2212       C  0.29146181  0.01301741  0.32562990     0.62800
H2213       H  0.36674366  0.08676212  0.33445098     0.12200
C2214       C  0.37120069  0.05920726  0.38734832     0.54900
H2215       H  0.29605617  0.98520133  0.37832940     0.08000
C2216       C  0.25531513  0.91313168  0.35027992    -0.05800
C2217       C  0.21621211  0.87350152  0.34741189    -0.06500
C2218       C  0.17561040  0.87173963  0.34659263    -0.16100
C2219       C  0.17343070  0.91051491  0.34878149    -0.01700
C2220       C  0.21253800  0.95010337  0.35181395    -0.09300
C2221       C  0.29869333  0.91370347  0.35100376     0.65000
H2222       H  0.21697261  0.84335658  0.34575181     0.10500
C2223       C  0.13057948  0.91061531  0.34721157     0.63400
H2224       H  0.21197927  0.98033596  0.35351136     0.07800
F2225       F  0.34946023  0.02430601  0.39744809    -0.19600
F2226       F  0.36894238  0.09457666  0.39320728    -0.15900
F2227       F  0.41462629  0.06964282  0.38668879    -0.19400
F2228       F  0.25180992  0.01211975  0.32601758    -0.22700
F2229       F  0.28423259  0.97230369  0.32095630    -0.24200
F2230       F  0.31782774  0.04365503  0.31470522    -0.18200
F2231       F  0.10239229  0.88645362  0.35901005    -0.20700
F2232       F  0.11116834  0.89242837  0.33320393    -0.21900
F2233       F  0.13705469  0.95283388  0.34786085    -0.19000
F2234       F  0.29334453  0.87251328  0.34819393    -0.19100
F2235       F  0.31710905  0.92705136  0.36546618    -0.23000
F2236       F  0.32741021  0.94244539  0.34011553    -0.24600
C2237       C  0.11747363  0.68689819  0.30129173    -0.11400
C2238       C  0.11892419  0.70542854  0.28686441     0.11200
C2239       C  0.11054591  0.74069377  0.28564182    -0.03200
C2240       C  0.10446714  0.75863381  0.29924814    -0.05900
C2241       C  0.10542287  0.74156633  0.31373728    -0.16700
C2242       C  0.11157395  0.70491829  0.31488394     0.02200
C2243       C  0.13233878  0.68882100  0.27348476     0.12200
C2244       C  0.10805756  0.75920334  0.27011566     0.62800
H2245       H  0.09936725  0.78652260  0.29872463     0.12200
C2246       C  0.11413054  0.68643105  0.33038879     0.54900
H2247       H  0.12300440  0.65928574  0.30182761     0.08000
C2248       C  0.17675061  0.70102273  0.27111347    -0.05800
C2249       C  0.18707150  0.68185266  0.25882499    -0.06500
C2250       C  0.15473888  0.65194028  0.24861748    -0.16100
C2251       C  0.11032917  0.64139865  0.25068581    -0.01700
C2252       C  0.09993106  0.65924482  0.26340735    -0.09300
C2253       C  0.21313087  0.73456282  0.28144620     0.65000
H2254       H  0.22083075  0.69018408  0.25713219     0.10500
C2255       C  0.07414053  0.61339947  0.23928264     0.63400
H2256       H  0.06620725  0.65033769  0.26561104     0.07800
F2257       F  0.12370044  0.65293891  0.32887364    -0.19600
F2258       F  0.07435495  0.66966328  0.33792818    -0.15900
F2259       F  0.14677888  0.71935988  0.33925426    -0.19400
F2260       F  0.07296358  0.72723243  0.26181882    -0.22700
F2261       F  0.14633118  0.77254723  0.26192489    -0.24200
F2262       F  0.10214434  0.79508107  0.27165923    -0.18200
F2263       F  0.06472376  0.57023468  0.23988435    -0.20700
F2264       F  0.08733085  0.62982002  0.22459700    -0.21900
F2265       F  0.03568996  0.61361569  0.24234793    -0.19000
F2266       F  0.25431837  0.74452686  0.27632647    -0.19100
F2267       F  0.20799823  0.71834117  0.29626200    -0.23000
F2268       F  0.21177750  0.77318397  0.28171993    -0.24600
C2269       C  0.97619718  0.87465735  0.43753379    -0.11400
C2270       C  0.96623866  0.83081531  0.43663347     0.11200
C2271       C  0.94798476  0.80267324  0.44948982    -0.03200
C2272       C  0.93850191  0.81923282  0.46274757    -0.05900
C2273       C  0.94688553  0.86268248  0.46355311    -0.16700
C2274       C  0.96681670  0.89133983  0.45082360     0.02200
C2275       C  0.97484262  0.81507819  0.42196327     0.12200
C2276       C  0.93901702  0.75559016  0.44924346     0.62800
H2277       H  0.92499808  0.79847028  0.47274787     0.12200
C2278       C  0.97750502  0.93894766  0.45103096     0.54900
H2279       H  0.99104762  0.89559061  0.42759529     0.08000
C2280       C  0.94341474  0.79857424  0.40996841    -0.05800
C2281       C  0.95188797  0.78037543  0.39695880    -0.06500
C2282       C  0.99127573  0.77995860  0.39535128    -0.16100
C2283       C  0.02419184  0.79951303  0.40685633    -0.01700
C2284       C  0.01510906  0.81658313  0.42012371    -0.09300
C2285       C  0.90129212  0.80039705  0.41088151     0.65000
H2286       H  0.92753094  0.76591785  0.38789704     0.10500
C2287       C  0.06782749  0.80092149  0.40544480     0.63400
H2288       H  0.03901610  0.83057528  0.42933637     0.07800
F2289       F  0.99127593  0.95872804  0.43675338    -0.19600
F2290       F  0.01084050  0.96274797  0.46147366    -0.15900
F2291       F  0.94077233  0.94111144  0.45513097    -0.19400
F2292       F  0.97804207  0.75576010  0.44735135    -0.22700
F2293       F  0.91106459  0.73243065  0.43724035    -0.24200
F2294       F  0.91972411  0.73348613  0.46278592    -0.18200
F2295       F  0.09384529  0.81914314  0.41837309    -0.20700
F2296       F  0.09074616  0.82626214  0.39288701    -0.21900
F2297       F  0.06067372  0.75873313  0.40360966    -0.19000
F2298       F  0.87555420  0.78281389  0.39785717    -0.19100
F2299       F  0.91138932  0.84367169  0.41221404    -0.23000
F2300       F  0.87680683  0.77701691  0.42350632    -0.24600
C2301       C  0.87219046  0.57125853  0.37505851    -0.11400
C2302       C  0.85261853  0.55923014  0.36048609     0.11200
C2303       C  0.87016808  0.58924151  0.34806610    -0.03200
C2304       C  0.90715532  0.63099135  0.35076504    -0.05900
C2305       C  0.92580935  0.64366820  0.36550617    -0.16700
C2306       C  0.90876728  0.61305003  0.37783572     0.02200
C2307       C  0.81125441  0.51647086  0.35910676     0.12200
C2308       C  0.84906602  0.57765828  0.33220429     0.62800
H2309       H  0.92069388  0.65480125  0.34150772     0.12200
C2310       C  0.92890548  0.62402300  0.39386838     0.54900
H2311       H  0.85760001  0.54788634  0.38440796     0.08000
C2312       C  0.81067991  0.47622697  0.35723533    -0.05800
C2313       C  0.76986153  0.43693456  0.35680136    -0.06500
C2314       C  0.73027548  0.43672111  0.35902993    -0.16100
C2315       C  0.73101335  0.47717434  0.36106203    -0.01700
C2316       C  0.77177032  0.51646403  0.36096098    -0.09300
C2317       C  0.85292464  0.47466012  0.35638012     0.65000
H2318       H  0.76862064  0.40571811  0.35539281     0.10500
C2319       C  0.68928027  0.47927680  0.36322349     0.63400
H2320       H  0.77336311  0.54773449  0.36273312     0.07800
F2321       F  0.91336086  0.58676778  0.40295179    -0.19600
F2322       F  0.91858096  0.65267667  0.40110718    -0.15900
F2323       F  0.97407292  0.64311520  0.39292383    -0.19400
F2324       F  0.80711035  0.57136903  0.33296135    -0.22700
F2325       F  0.84672142  0.53949500  0.32689265    -0.24200
F2326       F  0.87271998  0.61064516  0.32159395    -0.18200
F2327       F  0.67105579  0.46229629  0.37745584    -0.20700
F2328       F  0.65936425  0.45544596  0.35176591    -0.21900
F2329       F  0.69736313  0.52207002  0.36255394    -0.19000
F2330       F  0.84485869  0.43237658  0.35376776    -0.19100
F2331       F  0.87552979  0.48931381  0.37013003    -0.23000
F2332       F  0.87915995  0.50115870  0.34457255    -0.24600
C2333       C  0.22443201  0.23018617  0.03015207    -0.11400
C2334       C  0.18280944  0.22604675  0.03035880     0.11200
C2335       C  0.17861954  0.26372442  0.03207838    -0.03200
C2336       C  0.21695179  0.30513692  0.03280176    -0.05900
C2337       C  0.25886825  0.30959099  0.03258465    -0.16700
C2338       C  0.26288714  0.27148720  0.03139203     0.02200
C2339       C  0.14385125  0.18147188  0.02975628     0.12200
C2340       C  0.13395018  0.25989021  0.03406571     0.62800
H2341       H  0.21446301  0.33442000  0.03414606     0.12200
C2342       C  0.30709943  0.27385415  0.03217120     0.54900
H2343       H  0.22638372  0.20048954  0.02928016     0.08000
C2344       C  0.12617016  0.15935634  0.01569986    -0.05800
C2345       C  0.08637096  0.11922830  0.01604540    -0.06500
C2346       C  0.06432689  0.10055016  0.02992929    -0.16100
C2347       C  0.08443966  0.12114959  0.04414359    -0.01700
C2348       C  0.12399606  0.16156630  0.04370125    -0.09300
C2349       C  0.14882170  0.17840280  0.00042982     0.65000
H2350       H  0.07165698  0.10262061  0.00535502     0.10500
C2351       C  0.06558470  0.10067529  0.05975548     0.63400
H2352       H  0.13942072  0.17874499  0.05428896     0.07800
F2353       F  0.30256749  0.23244274  0.03302827    -0.19600
F2354       F  0.32988133  0.29713803  0.04511692    -0.15900
F2355       F  0.33127451  0.29434917  0.01912807    -0.19400
F2356       F  0.11585466  0.23954525  0.04794492    -0.22700
F2357       F  0.10606036  0.23532924  0.02222768    -0.24200
F2358       F  0.13695884  0.30068214  0.03411466    -0.18200
F2359       F  0.05616647  0.05744515  0.05998976    -0.20700
F2360       F  0.02788373  0.10230895  0.06268829    -0.21900
F2361       F  0.09487401  0.12268300  0.07161804    -0.19000
F2362       F  0.12742749  0.15006620  0.98827716    -0.19100
F2363       F  0.19128792  0.18599929  0.00083201    -0.23000
F2364       F  0.14988035  0.21760972  0.99761464    -0.24600
C2365       C  0.29179413  0.47560933  0.07866492    -0.11400
C2366       C  0.31400866  0.47550002  0.09206482     0.11200
C2367       C  0.34314960  0.45878189  0.09153413    -0.03200
C2368       C  0.34915647  0.44284725  0.07741749    -0.05900
C2369       C  0.32611333  0.44207407  0.06415523    -0.16700
C2370       C  0.29751475  0.45929584  0.06461685     0.02200
C2371       C  0.30422000  0.49147895  0.10653355     0.12200
C2372       C  0.36675068  0.45650808  0.10583787     0.62800
H2373       H  0.37036854  0.42887007  0.07677213     0.12200
C2374       C  0.27312684  0.46031610  0.05035477     0.54900
H2375       H  0.26910293  0.48781554  0.07940433     0.08000
C2376       C  0.32140333  0.53677267  0.10948977    -0.05800
C2377       C  0.30723534  0.54931546  0.12269745    -0.06500
C2378       C  0.27683805  0.51817695  0.13309291    -0.16100
C2379       C  0.26171920  0.47260722  0.13051466    -0.01700
C2380       C  0.27483418  0.46025910  0.11698873    -0.09300
C2381       C  0.35449237  0.57167462  0.09868258     0.65000
H2382       H  0.31935865  0.58386537  0.12482998     0.10500
C2383       C  0.23385313  0.43694311  0.14213958     0.63400
H2384       H  0.26195277  0.42578563  0.11436208     0.07800
F2385       F  0.25255700  0.48455942  0.05274641    -0.19600
F2386       F  0.24147752  0.41796041  0.04634618    -0.15900
F2387       F  0.30226560  0.47931646  0.03826175    -0.19400
F2388       F  0.33655485  0.42741465  0.11630030    -0.22700
F2389       F  0.39013849  0.49762083  0.11255976    -0.24200
F2390       F  0.39593963  0.44222181  0.10244189    -0.18200
F2391       F  0.19201064  0.43094710  0.14282203    -0.20700
F2392       F  0.25338855  0.44868202  0.15649537    -0.21900
F2393       F  0.22978945  0.39679864  0.13830788    -0.19000
F2394       F  0.36965390  0.61373942  0.10429910    -0.19100
F2395       F  0.33541840  0.56858387  0.08448239    -0.23000
F2396       F  0.39022376  0.56589489  0.09682790    -0.24600
C2397       C  0.48807842  0.36068201  0.97340954    -0.11400
C2398       C  0.45743536  0.35100627  0.96158615     0.11200
C2399       C  0.42112444  0.35707398  0.96404718    -0.03200
C2400       C  0.41921997  0.37700237  0.97784255    -0.05900
C2401       C  0.45188284  0.38999348  0.98915789    -0.16700
C2402       C  0.48580174  0.37995001  0.98730252     0.02200
C2403       C  0.46613415  0.33717364  0.94648066     0.12200
C2404       C  0.38471994  0.34259154  0.95219877     0.62800
H2405       H  0.39281541  0.38378904  0.97972456     0.12200
C2406       C  0.51881427  0.38865745  0.00000597     0.54900
H2407       H  0.51475973  0.35437315  0.97141609     0.08000
C2408       C  0.49536520  0.36837048  0.93573908    -0.05800
C2409       C  0.50432241  0.35325486  0.92197737    -0.06500
C2410       C  0.48557848  0.30807241  0.91866820    -0.16100
C2411       C  0.45718898  0.27685604  0.92983768    -0.01700
C2412       C  0.44751678  0.29223840  0.94343221    -0.09300
C2413       C  0.51854105  0.41745923  0.93914633     0.65000
H2414       H  0.52737626  0.37700845  0.91389965     0.10500
C2415       C  0.43934742  0.22770774  0.92814335     0.63400
H2416       H  0.42607689  0.26925277  0.95207334     0.07800
F2417       F  0.54596673  0.43339469  0.00205475    -0.19600
F2418       F  0.54494988  0.37074261  0.99659948    -0.15900
F2419       F  0.49686788  0.37002447  0.01361189    -0.19400
F2420       F  0.36354655  0.29736696  0.95055421    -0.22700
F2421       F  0.40183984  0.36208957  0.93813324    -0.24200
F2422       F  0.35385496  0.35387852  0.95655178    -0.18200
F2423       F  0.41875694  0.20485022  0.94142569    -0.20700
F2424       F  0.47351235  0.22019205  0.92510691    -0.21900
F2425       F  0.40889269  0.21092642  0.91635285    -0.19000
F2426       F  0.54127051  0.44236827  0.92646627    -0.19100
F2427       F  0.54819927  0.42722031  0.95102937    -0.23000
F2428       F  0.48846273  0.42979803  0.94339859    -0.24600
C2429       C  0.54920532  0.60807493  0.02035886    -0.11400
C2430       C  0.59180962  0.61508419  0.01904771     0.11200
C2431       C  0.59849243  0.57898504  0.01701491    -0.03200
C2432       C  0.56156030  0.53646099  0.01630486    -0.05900
C2433       C  0.51860081  0.52915484  0.01752413    -0.16700
C2434       C  0.51215740  0.56568753  0.01932527     0.02200
C2435       C  0.62897940  0.66047415  0.02084336     0.12200
C2436       C  0.64441255  0.58542218  0.01569104     0.62800
H2437       H  0.56602558  0.50838872  0.01492130     0.12200
C2438       C  0.46674628  0.56064314  0.01955302     0.54900
H2439       H  0.54529936  0.63637523  0.02221702     0.08000
C2440       C  0.64386984  0.69147254  0.00868025    -0.05800
C2441       C  0.68114967  0.73295747  0.01119266    -0.06500
C2442       C  0.70277090  0.74425258  0.02547152    -0.16100
C2443       C  0.68647072  0.71396142  0.03781910    -0.01700
C2444       C  0.64946223  0.67239180  0.03526795    -0.09300
C2445       C  0.62089019  0.68074713  0.99314652     0.65000
H2446       H  0.69412950  0.75691137  0.00195758     0.10500
C2447       C  0.70850425  0.72495071  0.05347792     0.63400
H2448       H  0.63639264  0.64838405  0.04448011     0.07800
F2449       F  0.46876343  0.60097247  0.01895669    -0.19600
F2450       F  0.44510293  0.53978163  0.03294793    -0.15900
F2451       F  0.44284639  0.53636406  0.00692617    -0.19400
F2452       F  0.66674160  0.60133041  0.02943161    -0.22700
F2453       F  0.66740381  0.61510520  0.00408061    -0.24200
F2454       F  0.64335357  0.54641495  0.01232426    -0.18200
F2455       F  0.70300805  0.75734134  0.06034820    -0.20700
F2456       F  0.75285428  0.73960581  0.05194879    -0.21900
F2457       F  0.69065315  0.68862602  0.06307273    -0.19000
F2458       F  0.64141677  0.71563249  0.98295871    -0.19100
F2459       F  0.57806001  0.67132245  0.99495731    -0.23000
F2460       F  0.62080228  0.64478583  0.98668507    -0.24600
C2461       C  0.99247741  0.47822359  0.58761661    -0.11400
C2462       C  0.03695817  0.49110939  0.58919475     0.11200
C2463       C  0.06000773  0.48741723  0.57642963    -0.03200
C2464       C  0.03674615  0.46819452  0.56271592    -0.05900
C2465       C  0.99196634  0.45431912  0.56127479    -0.16700
C2466       C  0.96969213  0.46071286  0.57369838     0.02200
C2467       C  0.05743599  0.50362072  0.60475184     0.12200
C2468       C  0.10896243  0.50381314  0.57733434     0.62800
H2469       H  0.05320399  0.46326420  0.55304393     0.12200
C2470       C  0.92157455  0.44733165  0.57245743     0.54900
H2471       H  0.97538173  0.48078353  0.59756192     0.08000
C2472       C  0.07307005  0.54576385  0.61124285    -0.05800
C2473       C  0.09642862  0.55594137  0.62525065    -0.06500
C2474       C  0.10353383  0.52500468  0.63321348    -0.16100
C2475       C  0.08421787  0.48129752  0.62715348    -0.01700
C2476       C  0.06158932  0.47179091  0.61302935    -0.09300
C2477       C  0.06474404  0.57959245  0.60348442     0.65000
H2478       H  0.10966363  0.58867103  0.62998884     0.10500
C2479       C  0.08681203  0.44420455  0.63522839     0.63400
H2480       H  0.04778795  0.43932673  0.60796539     0.07800
F2481       F  0.91616687  0.47146089  0.56098111    -0.19600
F2482       F  0.90582259  0.45481510  0.58603836    -0.15900
F2483       F  0.89672887  0.40297640  0.56900333    -0.19400
F2484       F  0.11720129  0.48019279  0.58821020    -0.22700
F2485       F  0.13134709  0.54784979  0.58137555    -0.24200
F2486       F  0.12544254  0.49954912  0.56338143    -0.18200
F2487       F  0.06155777  0.40409108  0.62793123    -0.20700
F2488       F  0.07140051  0.43966203  0.65016028    -0.21900
F2489       F  0.12972379  0.45291445  0.63529695    -0.19000
F2490       F  0.08467453  0.61934022  0.61129575    -0.19100
F2491       F  0.02010546  0.56418043  0.60306883    -0.23000
F2492       F  0.08085752  0.58725499  0.58860909    -0.24600
C2493       C  0.87759177  0.15438319  0.53789609    -0.11400
C2494       C  0.90068629  0.18381480  0.52589952     0.11200
C2495       C  0.91628475  0.16965732  0.51337389    -0.03200
C2496       C  0.90888459  0.12644597  0.51345654    -0.05900
C2497       C  0.88779977  0.09781695  0.52581871    -0.16700
C2498       C  0.87064826  0.11127712  0.53804598     0.02200
C2499       C  0.91002326  0.22994131  0.52716719     0.12200
C2500       C  0.94261042  0.20061839  0.50036527     0.62800
H2501       H  0.92155058  0.11534123  0.50419378     0.12200
C2502       C  0.84493316  0.08018684  0.55108826     0.54900
H2503       H  0.86610211  0.16591740  0.54738677     0.08000
C2504       C  0.87815079  0.24188763  0.52374735    -0.05800
C2505       C  0.88956944  0.28624679  0.52538054    -0.06500
C2506       C  0.93157089  0.31883460  0.53035850    -0.16100
C2507       C  0.96382269  0.30678345  0.53341714    -0.01700
C2508       C  0.95206336  0.26228416  0.53194360    -0.09300
C2509       C  0.83219658  0.20787558  0.51852321     0.65000
H2510       H  0.86514375  0.29560284  0.52313770     0.10500
C2511       C  0.01081382  0.34039122  0.53779227     0.63400
H2512       H  0.97571623  0.25215721  0.53459505     0.07800
F2513       F  0.82508108  0.09720026  0.56036025    -0.19600
F2514       F  0.87277800  0.07272060  0.56014904    -0.15900
F2515       F  0.81233869  0.04061002  0.54513693    -0.19400
F2516       F  0.98366006  0.23158579  0.50575813    -0.22700
F2517       F  0.92147479  0.22185440  0.49473371    -0.24200
F2518       F  0.94822138  0.17833790  0.48823643    -0.18200
F2519       F  0.03809388  0.32268381  0.53712069    -0.20700
F2520       F  0.01219257  0.35500216  0.55267614    -0.21900
F2521       F  0.02731921  0.37567672  0.52773808    -0.19000
F2522       F  0.80783777  0.22713587  0.51426773    -0.19100
F2523       F  0.81033572  0.17868837  0.53037080    -0.23000
F2524       F  0.83442794  0.18490210  0.50596424    -0.24600
C2525       C  0.86154072  0.66312813  0.50885259    -0.11400
C2526       C  0.87984826  0.65218242  0.52113222     0.11200
C2527       C  0.89766850  0.68112227  0.53379789    -0.03200
C2528       C  0.89676354  0.72071874  0.53363126    -0.05900
C2529       C  0.87771872  0.73193823  0.52141207    -0.16700
C2530       C  0.85864117  0.70160174  0.50885476     0.02200
C2531       C  0.88021555  0.61017443  0.52009448     0.12200
C2532       C  0.91743829  0.67008660  0.54743494     0.62800
H2533       H  0.91117243  0.74326254  0.54319381     0.12200
C2534       C  0.83435846  0.70817529  0.49552800     0.54900
H2535       H  0.84877547  0.64041014  0.49925093     0.08000
C2536       C  0.84158680  0.56875349  0.52215369    -0.05800
C2537       C  0.84363196  0.53032902  0.51960107    -0.06500
C2538       C  0.88300453  0.53221911  0.51549442    -0.16100
C2539       C  0.92188823  0.57351271  0.51391347    -0.01700
C2540       C  0.91958752  0.61200121  0.51596026    -0.09300
C2541       C  0.79838760  0.56509357  0.52693712     0.65000
H2542       H  0.81425522  0.49829945  0.52060378     0.10500
C2543       C  0.96532034  0.57681206  0.50984430     0.63400
H2544       H  0.94851017  0.64399800  0.51422834     0.07800
F2545       F  0.79848243  0.70992139  0.50108781    -0.19600
F2546       F  0.81885235  0.67415880  0.48492434    -0.15900
F2547       F  0.86204683  0.74646506  0.48771539    -0.19400
F2548       F  0.95453626  0.66924374  0.54283626    -0.22700
F2549       F  0.88728405  0.62932500  0.55331957    -0.24200
F2550       F  0.92938041  0.70069652  0.55916726    -0.18200
F2551       F  0.96100067  0.55361750  0.49645673    -0.20700
F2552       F  0.97812715  0.55952523  0.52171847    -0.21900
F2553       F  0.99822830  0.62000223  0.50758043    -0.19000
F2554       F  0.76637279  0.52191270  0.52984197    -0.19100
F2555       F  0.78313285  0.58095699  0.51537971    -0.23000
F2556       F  0.80430066  0.58915676  0.54021813    -0.24600
C2557       C  0.80680300  0.40519942  0.45470358    -0.11400
C2558       C  0.76908598  0.36403883  0.45676214     0.11200
C2559       C  0.76235697  0.34132041  0.47087625    -0.03200
C2560       C  0.79259410  0.36240848  0.48298767    -0.05900
C2561       C  0.82842773  0.40531432  0.48130932    -0.16700
C2562       C  0.83647988  0.42662916  0.46680569     0.02200
C2563       C  0.73705880  0.34627919  0.44387717     0.12200
C2564       C  0.72289153  0.29560427  0.47315899     0.62800
H2565       H  0.78728531  0.34645637  0.49408631     0.12200
C2566       C  0.87549054  0.47240445  0.46412668     0.54900
H2567       H  0.81169014  0.42139970  0.44366567     0.08000
C2568       C  0.70585088  0.35971379  0.44144104    -0.05800
C2569       C  0.67724188  0.34242175  0.42878752    -0.06500
C2570       C  0.68016930  0.31397031  0.41809598    -0.16100
C2571       C  0.71322122  0.30240623  0.42017765    -0.01700
C2572       C  0.74057978  0.31833006  0.43324226    -0.09300
C2573       C  0.70383235  0.39340566  0.45184410     0.65000
H2574       H  0.65274563  0.35185600  0.42698668     0.10500
C2575       C  0.72163011  0.27553337  0.40841538     0.63400
H2576       H  0.76573987  0.30977387  0.43516666     0.07800
F2577       F  0.86769829  0.50338322  0.47091753    -0.19600
F2578       F  0.88287637  0.48205902  0.44857545    -0.15900
F2579       F  0.91316591  0.47562376  0.47033195    -0.19400
F2580       F  0.72372974  0.26694309  0.46244678    -0.22700
F2581       F  0.68451227  0.29675171  0.47132809    -0.24200
F2582       F  0.72249437  0.27925039  0.48769633    -0.18200
F2583       F  0.76013272  0.27544723  0.41149032    -0.20700
F2584       F  0.72551425  0.29329168  0.39389046    -0.21900
F2585       F  0.68756961  0.23236453  0.40857581    -0.19000
F2586       F  0.66991313  0.40049375  0.44779976    -0.19100
F2587       F  0.74264263  0.43317837  0.45073892    -0.23000
F2588       F  0.69758410  0.37927525  0.46696204    -0.24600
C2589       C  0.59727889  0.58806010  0.86892675    -0.11400
C2590       C  0.55883939  0.55806772  0.86122303     0.11200
C2591       C  0.52836661  0.57089857  0.85666336    -0.03200
C2592       C  0.53825334  0.61429940  0.85970704    -0.05900
C2593       C  0.57718279  0.64487996  0.86727031    -0.16700
C2594       C  0.60762383  0.63154247  0.87187846     0.02200
C2595       C  0.55147339  0.51311067  0.85859198     0.12200
C2596       C  0.48573324  0.53897284  0.84859944     0.62800
H2597       H  0.51507919  0.62447117  0.85638911     0.12200
C2598       C  0.65149067  0.66262450  0.87949095     0.54900
H2599       H  0.61931492  0.57681024  0.87265494     0.08000
C2600       C  0.57538218  0.50451275  0.84733296    -0.05800
C2601       C  0.57041276  0.46227630  0.84668516    -0.06500
C2602       C  0.54288189  0.42919864  0.85698123    -0.16100
C2603       C  0.51740649  0.43700143  0.86768496    -0.01700
C2604       C  0.52274707  0.47932473  0.86851893    -0.09300
C2605       C  0.60711911  0.54007129  0.83641437     0.65000
H2606       H  0.58934171  0.45521329  0.83853998     0.10500
C2607       C  0.48465562  0.40046188  0.87804026     0.63400
H2608       H  0.50528819  0.48668889  0.87718574     0.07800
F2609       F  0.67826499  0.64436600  0.88038813    -0.19600
F2610       F  0.64483559  0.67216113  0.89434992    -0.15900
F2611       F  0.67367905  0.70105166  0.87103342    -0.19400
F2612       F  0.45997654  0.50394886  0.85818893    -0.22700
F2613       F  0.49471619  0.52331689  0.83530810    -0.24200
F2614       F  0.46166347  0.55872823  0.84458399    -0.18200
F2615       F  0.50649710  0.38683277  0.88773235    -0.20700
F2616       F  0.45523780  0.36519532  0.86913636    -0.21900
F2617       F  0.46109396  0.41395121  0.88698930    -0.19000
F2618       F  0.62207919  0.52306945  0.82510079    -0.19100
F2619       F  0.64311146  0.57142228  0.84451964    -0.23000
F2620       F  0.58663369  0.55998829  0.82921818    -0.24600
C2621       C  0.69296049  0.83842377  0.91466788    -0.11400
C2622       C  0.68852910  0.81113809  0.92709883     0.11200
C2623       C  0.65649228  0.76596617  0.92669186    -0.03200
C2624       C  0.63177999  0.74882279  0.91319014    -0.05900
C2625       C  0.63691586  0.77557813  0.90039061    -0.16700
C2626       C  0.66714516  0.82161422  0.90128676     0.02200
C2627       C  0.71652471  0.83106684  0.94078096     0.12200
C2628       C  0.64767764  0.73634362  0.94061392     0.62800
H2629       H  0.60774866  0.71404631  0.91258060     0.12200
C2630       C  0.67270950  0.85302957  0.88833155     0.54900
H2631       H  0.71685023  0.87318349  0.91562372     0.08000
C2632       C  0.75695095  0.83224853  0.94261802    -0.05800
C2633       C  0.77930583  0.84734274  0.95665046    -0.06500
C2634       C  0.76361371  0.86314970  0.96843157    -0.16100
C2635       C  0.72449950  0.86464640  0.96615238    -0.01700
C2636       C  0.70130975  0.84797703  0.95229296    -0.09300
C2637       C  0.77711638  0.81915351  0.92966751     0.65000
H2638       H  0.80994275  0.84775964  0.95844687     0.10500
C2639       C  0.70642170  0.88223783  0.97834636     0.63400
H2640       H  0.67067410  0.84742879  0.95034601     0.07800
F2641       F  0.70644390  0.89546388  0.89127564    -0.19600
F2642       F  0.63443800  0.85448419  0.88663602    -0.15900
F2643       F  0.68232268  0.83929973  0.87470689    -0.19400
F2644       F  0.63360224  0.75146006  0.95277880    -0.22700
F2645       F  0.68535726  0.73628185  0.94496847    -0.24200
F2646       F  0.61557319  0.69325246  0.93762646    -0.18200
F2647       F  0.73473613  0.92683151  0.98041847    -0.20700
F2648       F  0.70154194  0.86048496  0.99209895    -0.21900
F2649       F  0.66582388  0.87635593  0.97423178    -0.19000
F2650       F  0.81609324  0.82175123  0.93414470    -0.19100
F2651       F  0.78592034  0.84716428  0.91731359    -0.23000
F2652       F  0.74872096  0.77648947  0.92494439    -0.24600
C2653       C  0.47774520  0.73694297  0.78922793    -0.11400
C2654       C  0.43500493  0.70179582  0.79159748     0.11200
C2655       C  0.42154191  0.68393232  0.80655280    -0.03200
C2656       C  0.45030010  0.70482387  0.81897407    -0.05900
C2657       C  0.49169759  0.74220299  0.81672851    -0.16700
C2658       C  0.50642434  0.75787281  0.80164291     0.02200
C2659       C  0.40438708  0.68591949  0.77829969     0.12200
C2660       C  0.37722236  0.64299126  0.80933321     0.62800
H2661       H  0.44024214  0.69288714  0.83061205     0.12200
C2662       C  0.55176577  0.79710628  0.79872280     0.54900
H2663       H  0.48767382  0.74919421  0.77761315     0.08000
C2664       C  0.38286241  0.70837842  0.77321103    -0.05800
C2665       C  0.35406512  0.69136993  0.76055766    -0.06500
C2666       C  0.34536344  0.65220350  0.75301155    -0.16100
C2667       C  0.36726220  0.62968880  0.75838150    -0.01700
C2668       C  0.39685476  0.64766828  0.77078669    -0.09300
C2669       C  0.39012136  0.74996447  0.78126333     0.65000
H2670       H  0.33803524  0.70885083  0.75652503     0.10500
C2671       C  0.36023521  0.58695259  0.75132996     0.63400
H2672       H  0.41436152  0.63173264  0.77493098     0.07800
F2673       F  0.55332412  0.83507652  0.80385489    -0.19600
F2674       F  0.56222664  0.80205395  0.78320430    -0.15900
F2675       F  0.58309886  0.79172300  0.80644296    -0.19400
F2676       F  0.37648042  0.60728485  0.80235309    -0.22700
F2677       F  0.34388364  0.64831565  0.80328685    -0.24200
F2678       F  0.36897423  0.63381969  0.82488043    -0.18200
F2679       F  0.38606220  0.57244036  0.75823710    -0.20700
F2680       F  0.37105978  0.59308989  0.73586063    -0.21900
F2681       F  0.31690843  0.55411903  0.75320393    -0.19000
F2682       F  0.36401822  0.76527050  0.77515265    -0.19100
F2683       F  0.43346488  0.78291274  0.77974494    -0.23000
F2684       F  0.38017113  0.74160044  0.79674570    -0.24600
C2685       C  0.52792559  0.91698083  0.86513887    -0.11400
C2686       C  0.54568314  0.94917392  0.85360074     0.11200
C2687       C  0.56617207  0.94284270  0.84060938    -0.03200
C2688       C  0.56577988  0.90283409  0.83919316    -0.05900
C2689       C  0.54667528  0.86989691  0.85046543    -0.16700
C2690       C  0.52786719  0.87706366  0.86378351     0.02200
C2691       C  0.54345570  0.98986371  0.85560372     0.12200
C2692       C  0.58777081  0.97789483  0.82821028     0.62800
H2693       H  0.58001771  0.89663413  0.82913017     0.12200
C2694       C  0.50622302  0.84212606  0.87616086     0.54900
H2695       H  0.51349064  0.92323740  0.87513092     0.08000
C2696       C  0.50540775  0.99185198  0.85187735    -0.05800
C2697       C  0.50698854  0.03246516  0.85317500    -0.06500
C2698       C  0.54524444  0.07083062  0.85796227    -0.16100
C2699       C  0.58330440  0.06850646  0.86181431    -0.01700
C2700       C  0.58105193  0.02750841  0.86095902    -0.09300
C2701       C  0.46343763  0.95135304  0.84653233     0.65000
H2702       H  0.47814150  0.03458831  0.85040706     0.10500
C2703       C  0.62697061  0.10903086  0.86591351     0.63400
H2704       H  0.60931248  0.02461875  0.86399436     0.07800
F2705       F  0.48822843  0.85519584  0.88773467    -0.19600
F2706       F  0.53692626  0.83377706  0.88281432    -0.15900
F2707       F  0.47289568  0.80377504  0.86973001    -0.19400
F2708       F  0.62152877  0.01613777  0.83450219    -0.22700
F2709       F  0.55719408  0.98676362  0.82174941    -0.24200
F2710       F  0.60540687  0.96473123  0.81654688    -0.18200
F2711       F  0.66049873  0.09947694  0.86705589    -0.20700
F2712       F  0.62389715  0.12582712  0.87995029    -0.21900
F2713       F  0.63858154  0.14069477  0.85459904    -0.19000
F2714       F  0.43105163  0.96110929  0.84281621    -0.19100
F2715       F  0.44744697  0.92015543  0.85811007    -0.23000
F2716       F  0.47168942  0.93369721  0.83361039    -0.24600
C2717       C  0.90054823  0.25537082  0.69762942    -0.11400
C2718       C  0.92412895  0.28105803  0.68498766     0.11200
C2719       C  0.90985371  0.26520113  0.66986238    -0.03200
C2720       C  0.87134184  0.22417305  0.66794958    -0.05900
C2721       C  0.84677585  0.19870311  0.68059642    -0.16700
C2722       C  0.86181468  0.21445327  0.69579197     0.02200
C2723       C  0.96498058  0.32354485  0.68800130     0.12200
C2724       C  0.93507512  0.29158195  0.65580908     0.62800
H2725       H  0.85988918  0.21175986  0.65644818     0.12200
C2726       C  0.83814183  0.18839087  0.71011102     0.54900
H2727       H  0.91292048  0.26793084  0.70904500     0.08000
C2728       C  0.96453072  0.36216141  0.69229647    -0.05800
C2729       C  0.00487611  0.40158631  0.69414507    -0.06500
C2730       C  0.04519790  0.40322884  0.69201996    -0.16100
C2731       C  0.04540449  0.36365003  0.68869834    -0.01700
C2732       C  0.00501725  0.32449841  0.68677228    -0.09300
C2733       C  0.92169174  0.36162355  0.69498569     0.65000
H2734       H  0.00522053  0.43174855  0.69698770     0.10500
C2735       C  0.08759096  0.36184113  0.68764780     0.63400
H2736       H  0.00422043  0.29404648  0.68404081     0.07800
F2737       F  0.79874006  0.18762348  0.71176566    -0.19600
F2738       F  0.86250317  0.20684858  0.72335246    -0.15900
F2739       F  0.83048194  0.14583830  0.70899951    -0.19400
F2740       F  0.97642069  0.29624231  0.65558114    -0.22700
F2741       F  0.93919447  0.33279574  0.65622921    -0.24200
F2742       F  0.91408470  0.27128430  0.64220810    -0.18200
F2743       F  0.11289611  0.38074257  0.70062483    -0.20700
F2744       F  0.11112022  0.38382088  0.67468235    -0.21900
F2745       F  0.07928092  0.31899530  0.68669692    -0.19000
F2746       F  0.92854697  0.40340591  0.69775494    -0.19100
F2747       F  0.90050119  0.33573765  0.70764314    -0.23000
F2748       F  0.89477385  0.34475098  0.68222240    -0.24600
C2749       C  0.77619264  0.00536806  0.63726180    -0.11400
C2750       C  0.78645264  0.02638579  0.62287995     0.11200
C2751       C  0.78569795  0.06600616  0.62098394    -0.03200
C2752       C  0.77820102  0.08526083  0.63398009    -0.05900
C2753       C  0.77036283  0.06556319  0.64857235    -0.16700
C2754       C  0.76807800  0.02434288  0.65023866     0.02200
C2755       C  0.79930488  0.00708043  0.61005890     0.12200
C2756       C  0.79384513  0.08830752  0.60536483     0.62800
H2757       H  0.77938059  0.11653402  0.63293460     0.12200
C2758       C  0.75908588  0.00153320  0.66575710     0.54900
H2759       H  0.77584869  0.97450808  0.63830667     0.08000
C2760       C  0.84284618  0.01560778  0.60839977    -0.05800
C2761       C  0.85366071  0.99948199  0.59526305    -0.06500
C2762       C  0.82224849  0.97461071  0.58391456    -0.16100
C2763       C  0.77824939  0.96534206  0.58585390    -0.01700
C2764       C  0.76761751  0.98138057  0.59905559    -0.09300
C2765       C  0.87751122  0.04126655  0.62056930     0.65000
H2766       H  0.88692547  0.00597449  0.59381497     0.10500
C2767       C  0.74277753  0.94031017  0.57386452     0.63400
H2768       H  0.73441749  0.97481098  0.60078390     0.07800
F2769       F  0.78981796  0.02927204  0.67640536    -0.19600
F2770       F  0.76119321  0.96330908  0.66502036    -0.15900
F2771       F  0.71751718  0.99043941  0.67074946    -0.19400
F2772       F  0.76270480  0.06019781  0.59491050    -0.22700
F2773       F  0.83514387  0.09939564  0.60007212    -0.24200
F2774       F  0.79136012  0.12632030  0.60605025    -0.18200
F2775       F  0.70474108  0.94121166  0.57702791    -0.20700
F2776       F  0.73215723  0.89673195  0.57353794    -0.21900
F2777       F  0.75739772  0.95901190  0.55950947    -0.19000
F2778       F  0.91834256  0.04816485  0.61633282    -0.19100
F2779       F  0.86574179  0.01808138  0.63426628    -0.23000
F2780       F  0.88130660  0.08192893  0.62293070    -0.24600
C2781       C  0.53155659  0.92173171  0.68539614    -0.11400
C2782       C  0.51297971  0.89727371  0.69879794     0.11200
C2783       C  0.53409235  0.91278383  0.71314943    -0.03200
C2784       C  0.57224321  0.95434676  0.71372372    -0.05900
C2785       C  0.59042417  0.97986377  0.70038828    -0.16700
C2786       C  0.57027372  0.96298165  0.68585580     0.02200
C2787       C  0.47219402  0.85442447  0.69731569     0.12200
C2788       C  0.51676064  0.88521934  0.72769950     0.62800
H2789       H  0.58855640  0.96712762  0.72466056     0.12200
C2790       C  0.58842707  0.98831337  0.67093116     0.54900
H2791       H  0.51519909  0.90802354  0.67453211     0.08000
C2792       C  0.43035831  0.85075580  0.69653635    -0.05800
C2793       C  0.39314990  0.80859730  0.69539006    -0.06500
C2794       C  0.39695838  0.77081319  0.69486531    -0.16100
C2795       C  0.43888501  0.77470528  0.69557762    -0.01700
C2796       C  0.47603159  0.81679492  0.69660143    -0.09300
C2797       C  0.42509002  0.89102635  0.69704269     0.65000
H2798       H  0.36065776  0.80470647  0.69486753     0.10500
C2799       C  0.44445759  0.73475564  0.69531924     0.63400
H2800       H  0.50858612  0.82080800  0.69692065     0.07800
F2801       F  0.56061483  0.96762899  0.65859006    -0.19600
F2802       F  0.62833172  0.99159699  0.66759598    -0.15900
F2803       F  0.59382520  0.02994720  0.67228087    -0.19400
F2804       F  0.52004261  0.84780746  0.72633695    -0.22700
F2805       F  0.47325383  0.87292327  0.73001178    -0.24200
F2806       F  0.54023828  0.90801485  0.74062030    -0.18200
F2807       F  0.43332073  0.71589231  0.68085727    -0.20700
F2808       F  0.41778424  0.70457159  0.70630232    -0.21900
F2809       F  0.48733034  0.74569997  0.69840278    -0.19000
F2810       F  0.38136466  0.87973916  0.69646795    -0.19100
F2811       F  0.44629876  0.91800505  0.68461792    -0.23000
F2812       F  0.44296337  0.91418553  0.71051549    -0.24600
C2813       C  0.64910692  0.16473449  0.74448507    -0.11400
C2814       C  0.65312884  0.14867990  0.75883729     0.11200
C2815       C  0.66546449  0.11602223  0.75944043    -0.03200
C2816       C  0.67133361  0.09907348  0.74551606    -0.05900
C2817       C  0.66592987  0.11417834  0.73120118    -0.16700
C2818       C  0.65571187  0.14821269  0.73058010     0.02200
C2819       C  0.63879332  0.16265586  0.77281713     0.12200
C2820       C  0.67161963  0.09853069  0.77468194     0.62800
H2821       H  0.67883576  0.07274761  0.74567192     0.12200
C2822       C  0.65043889  0.16580169  0.71526707     0.54900
H2823       H  0.63919205  0.18930118  0.74426871     0.08000
C2824       C  0.66503619  0.20368441  0.78011964    -0.05800
C2825       C  0.64776464  0.21463451  0.79291484    -0.06500
C2826       C  0.60534628  0.18580935  0.79884660    -0.16100
C2827       C  0.57956131  0.14384147  0.79153466    -0.01700
C2828       C  0.59665195  0.13395095  0.77844739    -0.09300
C2829       C  0.71098476  0.23587719  0.77436060     0.65000
H2830       H  0.66772975  0.24635115  0.79833820     0.10500
C2831       C  0.53473518  0.10850972  0.79738022     0.63400
H2832       H  0.57726109  0.10302724  0.77243317     0.07800
F2833       F  0.63889962  0.19776815  0.71717181    -0.19600
F2834       F  0.61804556  0.13193709  0.70662465    -0.15900
F2835       F  0.68968175  0.18427634  0.70728013    -0.19400
F2836       F  0.63208168  0.07623290  0.78241608    -0.22700
F2837       F  0.70150222  0.13297660  0.78374197    -0.24200
F2838       F  0.68728531  0.06983052  0.77258639    -0.18200
F2839       F  0.50528308  0.12352093  0.79679676    -0.20700
F2840       F  0.53855589  0.09720953  0.81232904    -0.21900
F2841       F  0.51726649  0.07042352  0.78862352    -0.19000
F2842       F  0.73264110  0.27198834  0.78399344    -0.19100
F2843       F  0.70863813  0.25081455  0.75987133    -0.23000
F2844       F  0.73573504  0.21548700  0.77355895    -0.24600
loop_ 
_geom_bond_atom_site_label_1 
_geom_bond_atom_site_label_2 
_geom_bond_distance 
_geom_bond_site_symmetry_2 
_ccdc_geom_bond_type 
C1            N2   1.355       .  A
C1            N6   1.359       .  A
C1         C2817   1.477       .  S
N2            C3   1.358       .  A
C3            N4   1.356       .  A
C3         C2785   1.481   1_545  S
N4            C5   1.357       .  A
C5            N6   1.363       .  A
C5            C9   1.470       .  S
C7            N8   1.360       .  A
C7           N12   1.359       .  A
C7         C2753   1.482       .  S
N8            C9   1.362       .  A
C9           N10   1.355       .  A
N10          C11   1.355       .  A
C11          N12   1.360       .  A
C11        C2721   1.489       .  S
C13          N14   1.359       .  A
C13          N18   1.354       .  A
C13        C2657   1.471       .  S
N14          C15   1.361       .  A
C15          N16   1.362       .  A
C15          C21   1.473       .  S
N16          C17   1.359       .  A
C17          N18   1.355       .  A
C17        C2689   1.477       .  S
C19          N20   1.357       .  A
C19          N24   1.356       .  A
C19        C2625   1.487       .  S
N20          C21   1.360       .  A
C21          N22   1.363       .  A
N22          C23   1.362       .  A
C23          N24   1.353       .  A
C23        C2593   1.493       .  S
C25          N26   1.364       .  A
C25          N30   1.355       .  A
C25        C2561   1.481       .  S
N26          C27   1.366       .  A
C27          N28   1.361       .  A
C27          C35   1.476       .  S
N28          C29   1.355       .  A
C29          N30   1.353       .  A
C29        C2538   1.474       .  S
C31          N32   1.357       .  A
C31          N36   1.357       .  A
C31        C2465   1.481       .  S
N32          C33   1.359       .  A
C33          N34   1.364       .  A
C33        C2506   1.492       .  S
N34          C35   1.361       .  A
C35          N36   1.360       .  A
C37          N38   1.356       .  A
C37          N42   1.357       .  A
C37        C2401   1.475   1_554  S
N38          C39   1.358       .  A
C39          N40   1.359       .  A
C39        C2433   1.483       .  S
N40          C41   1.359       .  A
C41          N42   1.359       .  A
C41          C47   1.470       .  S
C43          N44   1.354       .  A
C43          N48   1.360       .  A
C43        C2369   1.471       .  S
N44          C45   1.355       .  A
C45          N46   1.356       .  A
C45        C2337   1.478       .  S
N46          C47   1.359       .  A
C47          N48   1.361       .  A
C49          N50   1.356   1_655  A
C49          N54   1.354       .  A
C49        C2282   1.476       .  S
N50          C51   1.360       .  A
C51          N52   1.360   1_455  A
C51          C57   1.465       .  S
N52          C53   1.358       .  A
C53          N54   1.354       .  A
C53        C2305   1.478       .  S
C55          N56   1.357       .  A
C55          N60   1.355       .  A
C55        C2241   1.469       .  S
N56          C57   1.359       .  A
C57          N58   1.358       .  A
N58          C59   1.355       .  A
C59          N60   1.356       .  A
C59        C2218   1.472       .  S
C61          N62   1.359       .  A
C61          N66   1.357       .  A
C61        C2154   1.487       .  S
N62          C63   1.362       .  A
C63          N64   1.362       .  A
C63          C71   1.473       .  S
N64          C65   1.360       .  A
C65          N66   1.355       .  A
C65        C2186   1.480       .  S
C67          N68   1.354       .  A
C67          N72   1.361       .  A
C67        C2090   1.483       .  S
N68          C69   1.353       .  A
C69          N70   1.358       .  A
C69        C2122   1.478   1_545  S
N70          C71   1.361       .  A
C71          N72   1.363       .  A
C73          N74   1.363       .  A
C73          N78   1.359   1_455  A
C73        C2058   1.499       .  S
N74          C75   1.366       .  A
C75          N76   1.355   1_455  A
C75          C81   1.473       .  S
N76          C77   1.355       .  A
C77          N78   1.358       .  A
C77        C2017   1.470       .  S
C79          N80   1.364       .  A
C79          N84   1.359       .  A
C79        C1994   1.492       .  S
N80          C81   1.366       .  A
C81          N82   1.354       .  A
N82          C83   1.353       .  A
C83          N84   1.358       .  A
C83        C1953   1.471       .  S
C85          N86   1.357       .  A
C85          N90   1.358       .  A
C85        C1921   1.477       .  S
N86          C87   1.355       .  A
C87          N88   1.360       .  A
C87        C1889   1.488       .  S
N88          C89   1.361       .  A
C89          N90   1.360       .  A
C89          C93   1.471       .  S
C91          N92   1.358       .  A
C91          N96   1.356       .  A
C91        C1825   1.479       .  S
N92          C93   1.360       .  A
C93          N94   1.361       .  A
N94          C95   1.359       .  A
C95          N96   1.355       .  A
C95        C1857   1.476       .  S
C97          N98   1.356       .  A
C97         N102   1.360       .  A
C97        C1793   1.487       .  S
N98          C99   1.357       .  A
C99         N100   1.357       .  A
C99        C1770   1.477       .  S
N100        C101   1.357       .  A
C101        N102   1.363       .  A
C101        C105   1.470       .  S
C103        N104   1.362       .  A
C103        N108   1.357       .  A
C103       C1697   1.493       .  S
N104        C105   1.364       .  A
C105        N106   1.356       .  A
N106        C107   1.354       .  A
C107        N108   1.354       .  A
C107       C1729   1.475       .  S
C109        N110   1.360       .  A
C109        N114   1.358       .  A
C109       C1633   1.491   1_564  S
N110        C111   1.362       .  A
C111        N112   1.363       .  A
C111        C119   1.476       .  S
N112        C113   1.359       .  A
C113        N114   1.353       .  A
C113       C1674   1.481       .  S
C115        N116   1.357       .  A
C115        N120   1.358       .  A
C115       C1610   1.486       .  S
N116        C117   1.357       .  A
C117        N118   1.363       .  A
C117       C1569   1.491       .  S
N118        C119   1.363       .  A
C119        N120   1.360       .  A
C121        N122   1.359       .  A
C121        N126   1.353       .  A
C121       C1514   1.479       .  S
N122        C123   1.364       .  A
C123        N124   1.360       .  A
C123        C129   1.473       .  S
N124        C125   1.359       .  A
C125        N126   1.355       .  A
C125       C1537   1.479       .  S
C127        N128   1.363       .  A
C127        N132   1.360       .  A
C127       C1482   1.489       .  S
N128        C129   1.364       .  A
C129        N130   1.357       .  A
N130        C131   1.354   1_455  A
C131        N132   1.358   1_655  A
C131       C1441   1.472       .  S
C133        N134   1.360       .  A
C133        N138   1.354       .  A
C133       C1377   1.481       .  S
N134        C135   1.362       .  A
C135        N136   1.358       .  A
C135        C143   1.469       .  S
N136        C137   1.355       .  A
C137        N138   1.353       .  A
C137       C1409   1.478       .  S
C139        N140   1.354   1_545  A
C139        N144   1.358       .  A
C139       C1322   1.479       .  S
N140        C141   1.357       .  A
C141        N142   1.357   1_565  A
C141       C1354   1.479       .  S
N142        C143   1.359       .  A
C143        N144   1.362       .  A
C145        N146   1.359       .  A
C145        N150   1.354       .  A
C145       C1281   1.472       .  S
N146        C147   1.362       .  A
C147        N148   1.356       .  A
C147        C153   1.470       .  S
N148        C149   1.356       .  A
C149        N150   1.356       .  A
C149       C1258   1.476       .  S
C151        N152   1.361       .  A
C151        N156   1.359       .  A
C151       C1226   1.489       .  S
N152        C153   1.363       .  A
C153        N154   1.356       .  A
N154        C155   1.355       .  A
C155        N156   1.359       .  A
C155       C1194   1.482       .  S
C157        N158   1.355       .  A
C157        N162   1.354       .  A
C157       C1162   1.472       .  S
N158        C159   1.359       .  A
C159        N160   1.360       .  A
C159        C165   1.467       .  S
N160        C161   1.359       .  A
C161        N162   1.358       .  A
C161       C1121   1.487       .  S
C163        N164   1.360       .  A
C163        N168   1.355   1_545  A
C163       C1089   1.475       .  S
N164        C165   1.361       .  A
C165        N166   1.357       .  A
N166        C167   1.354   1_545  A
C167        N168   1.356       .  A
C167       C1066   1.482       .  S
C169        N170   1.354       .  A
C169        N174   1.358       .  A
C169        C993   1.486   1_565  S
N170        C171   1.357       .  A
C171        N172   1.360       .  A
C171       C1025   1.486       .  S
N172        C173   1.363       .  A
C173        N174   1.362       .  A
C173        C177   1.475       .  S
C175        N176   1.361       .  A
C175        N180   1.357       .  A
C175        C929   1.484       .  S
N176        C177   1.362       .  A
C177        N178   1.361       .  A
N178        C179   1.358       .  A
C179        N180   1.357       .  A
C179        C961   1.481       .  S
C181        N182   1.354       .  A
C181        N186   1.356       .  A
C181        C865   1.476       .  S
N182        C183   1.357       .  A
C183        N184   1.363       .  A
C183        C189   1.469       .  S
N184        C185   1.362       .  A
C185        N186   1.357       .  A
C185        C906   1.485       .  S
C187        N188   1.358       .  A
C187        N192   1.358       .  A
C187        C842   1.482       .  S
N188        C189   1.358       .  A
C189        N190   1.361       .  A
N190        C191   1.358       .  A
C191        N192   1.356       .  A
C191        C801   1.478       .  S
C193        N194   1.360   1_556  A
C193        N198   1.360       .  A
C193        C778   1.484       .  S
N194        C195   1.362       .  A
C195        N196   1.357       .  A
C195        C201   1.470       .  S
N196        C197   1.356       .  A
C197        N198   1.359   1_554  A
C197        C737   1.483       .  S
C199        N200   1.359       .  A
C199        N204   1.356       .  A
C199        C673   1.490       .  S
N200        C201   1.363       .  A
C201        N202   1.360       .  A
N202        C203   1.357       .  A
C203        N204   1.354       .  A
C203        C714   1.471       .  S
C205        N206   1.362       .  A
C205        N210   1.352       .  A
C205        C618   1.491       .  S
N206        C207   1.366       .  A
C207        N208   1.361       .  A
C207        C213   1.474       .  S
N208        C209   1.357       .  A
C209        N210   1.352       .  A
C209        C641   1.473       .  S
C211        N212   1.363   1_655  A
C211        N216   1.359       .  A
C211        C545   1.493       .  S
N212        C213   1.364       .  A
C213        N214   1.357   1_455  A
N214        C215   1.355       .  A
C215        N216   1.359       .  A
C215        C577   1.473       .  S
O217        C228   1.288       .  A
O217       Eu253   2.461       .  S
O218        C229   1.290       .  A
O218       Eu252   2.450       .  S
O219        C230   1.286       .  A
O219       Eu225   2.440       .  S
O220        C231   1.290       .  A
O220       Eu225   2.448       .  S
O221        C231   1.291       .  A
O221       Eu255   2.465       .  S
O222        C230   1.297       .  A
O222       Eu254   2.491       .  S
O223        C229   1.289       .  A
O223       Eu225   2.456       .  S
O224        C228   1.295       .  A
O224       Eu225   2.476       .  S
Eu225       O235   2.346       .  S
Eu225       O227   2.348       .  S
Eu225       O226   2.348       .  S
Eu225       O233   2.356       .  S
O226       Eu255   2.346       .  S
O226       Eu252   2.352       .  S
O227       Eu253   2.353       .  S
O227       Eu254   2.354       .  S
C228       C2826   1.511       .  S
C229       C2026   1.482       .  S
C230       C1834   1.496       .  S
C231        C586   1.485       .  S
H232        O233   0.966       .  S
O233       Eu254   2.353       .  S
O233       Eu252   2.364       .  S
H234        O235   0.966       .  S
O235       Eu253   2.353       .  S
O235       Eu255   2.351       .  S
O236        C259   1.294       .  A
O236       Eu252   2.474       .  S
O237        C260   1.289       .  A
O237       Eu253   2.461       .  S
O238        C261   1.289       .  A
O238       Eu254   2.448       .  S
O239        C262   1.291       .  A
O239       Eu255   2.454       .  S
O240        C263   1.288       .  A
O240       Eu255   2.451       .  S
O241        C264   1.290       .  A
O241       Eu254   2.455       .  S
O242        C265   1.287       .  A
O242       Eu256   2.447       .  S
O243        C266   1.291       .  A
O243       Eu256   2.459       .  S
O244        C265   1.297       .  A
O244       Eu254   2.484       .  S
O245        C266   1.292       .  A
O245       Eu255   2.463       .  S
O246        C261   1.292       .  A
O246       Eu252   2.462       .  S
O247        C264   1.291       .  A
O247       Eu253   2.455       .  S
O248        C263   1.292       .  A
O248       Eu253   2.460       .  S
O249        C262   1.292       .  A
O249       Eu252   2.472       .  S
O250        C259   1.290       .  A
O250       Eu256   2.464       .  S
O251        C260   1.294       .  A
O251       Eu256   2.465       .  S
Eu252       O270   2.348       .  S
Eu252       O258   2.349       .  S
Eu253       O257   2.359       .  S
Eu253       O268   2.356       .  S
Eu254       O268   2.354       .  S
Eu254       O258   2.360       .  S
Eu255       O257   2.361       .  S
Eu255       O270   2.350       .  S
Eu256       O257   2.355       .  S
Eu256       O268   2.355       .  S
Eu256       O270   2.350       .  S
Eu256       O258   2.352       .  S
C259       C2410   1.500       .  S
C260       C1962   1.493       .  S
C261       C2602   1.469       .  S
C262        C769   1.492       .  S
C263       C2698   1.485       .  S
C264       C1153   1.479       .  S
C265        C650   1.495       .  S
C266       C1642   1.481       .  S
H267        O268   0.965       .  S
H269        O270   0.965       .  S
O271        C282   1.291       .  A
O271       Eu307   2.454   1_556  S
O272        C283   1.288       .  A
O272       Eu306   2.450   1_545  S
O273        C284   1.296       .  A
O273       Eu279   2.485       .  S
O274        C285   1.294       .  A
O274       Eu279   2.472   1_546  S
O275        C285   1.292       .  A
O275       Eu309   2.471   1_546  S
O276        C284   1.290       .  A
O276       Eu308   2.457       .  S
O277        C283   1.292       .  A
O277       Eu279   2.456   1_545  S
O278        C282   1.288       .  A
O278       Eu279   2.448   1_556  S
Eu279       O289   2.363       .  S
Eu279       O281   2.352       .  S
Eu279       O280   2.351       .  S
Eu279       O287   2.350       .  S
O280       Eu309   2.359       .  S
O280       Eu306   2.354       .  S
O281       Eu307   2.358       .  S
O281       Eu308   2.350       .  S
C282       C2634   1.475       .  S
C283        C746   1.486       .  S
C284       C1578   1.489       .  S
C285        C554   1.490       .  S
H286        O287   0.966       .  S
O287       Eu308   2.358       .  S
O287       Eu306   2.352       .  S
H288        O289   0.966   1_556  S
O289       Eu307   2.353       .  S
O289       Eu309   2.348       .  S
O290        C313   1.289       .  A
O290       Eu306   2.460       .  S
O291        C314   1.295       .  A
O291       Eu307   2.481       .  S
O292        C315   1.291       .  A
O292       Eu308   2.457       .  S
O293        C316   1.293       .  A
O293       Eu309   2.462   1_445  S
O294        C317   1.297       .  A
O294       Eu309   2.496   1_556  S
O295        C318   1.290       .  A
O295       Eu308   2.457       .  S
O296        C319   1.291       .  A
O296       Eu310   2.463       .  S
O297        C320   1.292   1_655  A
O297       Eu310   2.471       .  S
O298        C319   1.292       .  A
O298       Eu308   2.466       .  S
O299        C320   1.292       .  A
O299       Eu309   2.455   1_455  S
O300        C315   1.287       .  A
O300       Eu306   2.446       .  S
O301        C318   1.287       .  A
O301       Eu307   2.433       .  S
O302        C317   1.290       .  A
O302       Eu307   2.459   1_556  S
O303        C316   1.286   1_655  A
O303       Eu306   2.440   1_545  S
O304        C313   1.292       .  A
O304       Eu310   2.461       .  S
O305        C314   1.286       .  A
O305       Eu310   2.439       .  S
Eu306       O324   2.349       .  S
Eu306       O312   2.339       .  S
Eu307       O311   2.346       .  S
Eu307       O322   2.356       .  S
Eu308       O322   2.359       .  S
Eu308       O312   2.348       .  S
Eu309       O311   2.354       .  S
Eu309       O324   2.367       .  S
Eu310       O311   2.358       .  S
Eu310       O322   2.356       .  S
Eu310       O324   2.341       .  S
Eu310       O312   2.342       .  S
C313       C2145   1.493       .  S
C314        C705   1.494       .  S
C315       C1313   1.482       .  S
C316       C2346   1.483       .  S
C317       C1985   1.498       .  S
C318       C2442   1.469       .  S
C319        C833   1.489       .  S
C320       C1665   1.494       .  S
H321        O322   0.966       .  S
H323        O324   0.965       .  S
O325        C336   1.294       .  A
O325       Eu361   2.467       .  S
O326        C337   1.293       .  A
O326       Eu360   2.470       .  S
O327        C338   1.288       .  A
O327       Eu333   2.449       .  S
O328        C339   1.293       .  A
O328       Eu333   2.464       .  S
O329        C339   1.288       .  A
O329       Eu363   2.457       .  S
O330        C338   1.294       .  A
O330       Eu362   2.470       .  S
O331        C337   1.287       .  A
O331       Eu333   2.447       .  S
O332        C336   1.288       .  A
O332       Eu333   2.451       .  S
Eu333       O343   2.350       .  S
Eu333       O335   2.355       .  S
Eu333       O334   2.349       .  S
Eu333       O341   2.353       .  S
O334       Eu363   2.354       .  S
O334       Eu360   2.348       .  S
O335       Eu361   2.343       .  S
O335       Eu362   2.356       .  S
C336       C2570   1.492       .  S
C337       C1185   1.489       .  S
C338       C1002   1.490       .  S
C339       C1450   1.500       .  S
H340        O341   0.966       .  S
O341       Eu362   2.358       .  S
O341       Eu360   2.354       .  S
H342        O343   0.965       .  S
O343       Eu361   2.360       .  S
O343       Eu363   2.354       .  S
O344        C367   1.289       .  A
O344       Eu360   2.452       .  S
O345        C368   1.288       .  A
O345       Eu361   2.448       .  S
O346        C369   1.291       .  A
O346       Eu362   2.462       .  S
O347        C370   1.291       .  A
O347       Eu363   2.458       .  S
O348        C371   1.291       .  A
O348       Eu363   2.457       .  S
O349        C372   1.293       .  A
O349       Eu362   2.466       .  S
O350        C373   1.288       .  A
O350       Eu364   2.446       .  S
O351        C374   1.293       .  A
O351       Eu364   2.469       .  S
O352        C373   1.293       .  A
O352       Eu362   2.467       .  S
O353        C374   1.288       .  A
O353       Eu363   2.454       .  S
O354        C369   1.289       .  A
O354       Eu360   2.439       .  S
O355        C372   1.293       .  A
O355       Eu361   2.477       .  S
O356        C371   1.289       .  A
O356       Eu361   2.453       .  S
O357        C370   1.289       .  A
O357       Eu360   2.452       .  S
O358        C367   1.291       .  A
O358       Eu364   2.460       .  S
O359        C368   1.291       .  A
O359       Eu364   2.454       .  S
Eu360       O378   2.353       .  S
Eu360       O366   2.350       .  S
Eu361       O365   2.358       .  S
Eu361       O376   2.356       .  S
Eu362       O376   2.351       .  S
Eu362       O366   2.353       .  S
Eu363       O365   2.351       .  S
Eu363       O378   2.345       .  S
Eu364       O365   2.344       .  S
Eu364       O376   2.356       .  S
Eu364       O378   2.341       .  S
Eu364       O366   2.350       .  S
C367       C2081   1.477       .  S
C368       C1249   1.473       .  S
C369       C2209   1.477       .  S
C370       C1386   1.474       .  S
C371       C2314   1.479       .  S
C372       C1802   1.492       .  S
C373       C1546   1.479       .  S
C374        C874   1.490       .  S
H375        O376   0.966       .  S
H377        O378   0.965       .  S
O379        C390   1.289       .  A
O379       Eu415   2.447       .  S
O380        C391   1.294       .  A
O380       Eu414   2.476       .  S
O381        C392   1.288       .  A
O381       Eu387   2.447       .  S
O382        C393   1.293       .  A
O382       Eu387   2.468       .  S
O383        C393   1.286       .  A
O383       Eu417   2.449       .  S
O384        C392   1.289       .  A
O384       Eu416   2.444       .  S
O385        C391   1.290       .  A
O385       Eu387   2.457       .  S
O386        C390   1.288       .  A
O386       Eu387   2.442       .  S
Eu387       O397   2.354       .  S
Eu387       O389   2.353       .  S
Eu387       O388   2.347       .  S
Eu387       O395   2.359       .  S
O388       Eu417   2.349       .  S
O388       Eu414   2.358       .  S
O389       Eu415   2.346       .  S
O389       Eu416   2.350       .  S
C390       C2794   1.469       .  S
C391       C2049   1.481       .  S
C392       C1057   1.467       .  S
C393       C2666   1.504       .  S
H394        O395   0.966       .  S
O395       Eu416   2.358       .  S
O395       Eu414   2.350       .  S
H396        O397   0.965       .  S
O397       Eu415   2.357       .  S
O397       Eu417   2.353       .  S
O398        C421   1.295       .  A
O398       Eu414   2.482       .  S
O399        C422   1.288       .  A
O399       Eu415   2.448       .  S
O400        C423   1.289       .  A
O400       Eu416   2.458       .  S
O401        C424   1.295       .  A
O401       Eu417   2.477       .  S
O402        C425   1.292       .  A
O402       Eu417   2.471       .  S
O403        C426   1.291       .  A
O403       Eu416   2.454       .  S
O404        C427   1.288       .  A
O404       Eu418   2.456       .  S
O405        C428   1.292       .  A
O405       Eu418   2.462       .  S
O406        C427   1.293       .  A
O406       Eu416   2.465       .  S
O407        C428   1.288       .  A
O407       Eu417   2.447       .  S
O408        C423   1.291       .  A
O408       Eu414   2.452       .  S
O409        C426   1.294       .  A
O409       Eu415   2.481       .  S
O410        C425   1.295       .  A
O410       Eu415   2.472       .  S
O411        C424   1.286       .  A
O411       Eu414   2.438       .  S
O412        C421   1.286       .  A
O412       Eu418   2.440       .  S
O413        C422   1.291       .  A
O413       Eu418   2.455       .  S
Eu414       O432   2.353       .  S
Eu414       O420   2.353       .  S
Eu415       O419   2.346       .  S
Eu415       O430   2.354       .  S
Eu416       O430   2.355       .  S
Eu416       O420   2.348       .  S
Eu417       O419   2.347       .  S
Eu417       O432   2.348       .  S
Eu418       O419   2.339       .  S
Eu418       O430   2.352       .  S
Eu418       O432   2.351       .  S
Eu418       O420   2.354       .  S
C421       C2730   1.485       .  S
C422       C1706   1.475       .  S
C423       C1866   1.494       .  S
C424        C609   1.483       .  S
C425       C1898   1.499       .  S
C426        C938   1.489       .  S
C427       C2474   1.504       .  S
C428       C1130   1.483       .  S
H429        O430   0.966       .  S
H431        O432   0.965       .  S
O433        C444   1.288       .  A
O433       Eu469   2.454       .  S
O434        C445   1.284       .  A
O434       Eu468   2.429       .  S
O435        C446   1.292       .  A
O435       Eu441   2.471       .  S
O436        C447   1.292       .  A
O436       Eu441   2.461       .  S
O437        C447   1.290       .  A
O437       Eu471   2.459       .  S
O438        C446   1.291       .  A
O438       Eu470   2.453       .  S
O439        C445   1.294       .  A
O439       Eu441   2.473       .  S
O440        C444   1.296       .  A
O440       Eu441   2.484       .  S
Eu441       O451   2.353       .  S
Eu441       O443   2.357       .  S
Eu441       O442   2.352       .  S
Eu441       O449   2.355       .  S
O442       Eu471   2.343       .  S
O442       Eu468   2.341       .  S
O443       Eu469   2.358       .  S
O443       Eu470   2.362       .  S
C444       C2378   1.496       .  S
C445       C1345   1.480       .  S
C446       C1601   1.495       .  S
C447        C897   1.480       .  S
H448        O449   0.969       .  S
O449       Eu470   2.354       .  S
O449       Eu468   2.353       .  S
H450        O451   0.966       .  S
O451       Eu469   2.354       .  S
O451       Eu471   2.354       .  S
O452        C475   1.291       .  A
O452       Eu468   2.456       .  S
O453        C476   1.291       .  A
O453       Eu469   2.461       .  S
O454        C477   1.295       .  A
O454       Eu470   2.479       .  S
O455        C478   1.292       .  A
O455       Eu471   2.457       .  S
O456        C479   1.288       .  A
O456       Eu471   2.450       .  S
O457        C480   1.292       .  A
O457       Eu470   2.470       .  S
O458        C481   1.290       .  A
O458       Eu472   2.448       .  S
O459        C482   1.291       .  A
O459       Eu472   2.462       .  S
O460        C481   1.292       .  A
O460       Eu470   2.466       .  S
O461        C482   1.293       .  A
O461       Eu471   2.469       .  S
O462        C477   1.284       .  A
O462       Eu468   2.429       .  S
O463        C480   1.293       .  A
O463       Eu469   2.470       .  S
O464        C479   1.292       .  A
O464       Eu469   2.459       .  S
O465        C478   1.287       .  A
O465       Eu468   2.450       .  S
O466        C475   1.288       .  A
O466       Eu472   2.453       .  S
O467        C476   1.286       .  A
O467       Eu472   2.424       .  S
Eu468       O486   2.338       .  S
Eu468       O474   2.341       .  S
Eu469       O473   2.356       .  S
Eu469       O484   2.353       .  S
Eu470       O484   2.355       .  S
Eu470       O474   2.351       .  S
Eu471       O473   2.351       .  S
Eu471       O486   2.352       .  S
Eu472       O473   2.348       .  S
Eu472       O484   2.361       .  S
Eu472       O486   2.347       .  S
Eu472       O474   2.342       .  S
C475       C2250   1.492       .  S
C476       C1418   1.469       .  S
C477       C2113   1.479       .  S
C478       C1290   1.495       .  S
C479       C2177   1.483       .  S
C480        C682   1.495       .  S
C481        C810   1.481       .  S
C482       C1473   1.491       .  S
H483        O484   0.988       .  S
H485        O486   0.969       .  S
O487        C498   1.292       .  A
O487       Eu523   2.462       .  S
O488        C499   1.291       .  A
O488       Eu522   2.463       .  S
O489        C500   1.290       .  A
O489       Eu495   2.459       .  S
O490        C501   1.293       .  A
O490       Eu495   2.464       .  S
O491        C501   1.287       .  A
O491       Eu525   2.443       .  S
O492        C500   1.289       .  A
O492       Eu524   2.445       .  S
O493        C499   1.290       .  A
O493       Eu495   2.442       .  S
O494        C498   1.291       .  A
O494       Eu495   2.466       .  S
Eu495       O505   2.345       .  S
Eu495       O497   2.344       .  S
Eu495       O496   2.353       .  S
Eu495       O503   2.358       .  S
O496       Eu525   2.339       .  S
O496       Eu522   2.347       .  S
O497       Eu523   2.347       .  S
O497       Eu524   2.356       .  S
C498       C2762   1.494       .  S
C499       C1738   1.477       .  S
C500       C1034   1.474       .  S
C501       C1930   1.482       .  S
H502        O503   0.966       .  S
O503       Eu524   2.349       .  S
O503       Eu522   2.352       .  S
H504        O505   0.966       .  S
O505       Eu523   2.349       .  S
O505       Eu525   2.358       .  S
O506        C529   1.293       .  A
O506       Eu522   2.466       .  S
O507        C530   1.289   1_655  A
O507       Eu523   2.442   1_545  S
O508        C531   1.293       .  A
O508       Eu524   2.472       .  S
O509        C532   1.293       .  A
O509       Eu525   2.470       .  S
O510        C533   1.285       .  A
O510       Eu525   2.435       .  S
O511        C534   1.290       .  A
O511       Eu524   2.453   1_545  S
O512        C535   1.295       .  A
O512       Eu526   2.478   1_545  S
O513        C536   1.295       .  A
O513       Eu526   2.477   1_455  S
O514        C535   1.289       .  A
O514       Eu524   2.455   1_545  S
O515        C536   1.286   1_655  A
O515       Eu525   2.441       .  S
O516        C531   1.287       .  A
O516       Eu522   2.438       .  S
O517        C534   1.293       .  A
O517       Eu523   2.473   1_545  S
O518        C533   1.295       .  A
O518       Eu523   2.474       .  S
O519        C532   1.285       .  A
O519       Eu522   2.448       .  S
O520        C529   1.289       .  A
O520       Eu526   2.454       .  S
O521        C530   1.292       .  A
O521       Eu526   2.467   1_445  S
Eu522       O540   2.346       .  S
Eu522       O528   2.357       .  S
Eu523       O527   2.358       .  S
Eu523       O538   2.357       .  S
Eu524       O538   2.353       .  S
Eu524       O528   2.348       .  S
Eu525       O527   2.355       .  S
Eu525       O540   2.344       .  S
Eu526       O527   2.352       .  S
Eu526       O538   2.353       .  S
Eu526       O540   2.360       .  S
Eu526       O528   2.359       .  S
C529       C2273   1.483       .  S
C530       C1761   1.477       .  S
C531       C1217   1.478       .  S
C532       C2529   1.506       .  S
C533       C1098   1.493   1_655  S
C534       C2497   1.478       .  S
C535       C1505   1.490       .  S
C536        C970   1.492       .  S
H537        O538   0.966   1_545  S
H539        O540   0.966       .  S
C541        C542   1.403       .  A
C541        C546   1.412       .  A
C541        H551   1.083       .  S
C542        C547   1.496       .  S
C542        C543   1.417       .  A
C543        C544   1.411       .  A
C543        C548   1.519       .  S
C544        C545   1.407       .  A
C544        H549   1.083       .  S
C545        C546   1.421       .  A
C546        C550   1.518   1_655  S
C547        C552   1.418       .  A
C547        C556   1.403       .  A
C548        F564   1.382       .  S
C548        F565   1.383       .  S
C548        F566   1.385       .  S
C550        F561   1.385       .  S
C550        F562   1.382       .  S
C550        F563   1.384   1_455  S
C552        C553   1.409       .  A
C552        C557   1.518       .  S
C553        C554   1.404       .  A
C553        H558   1.083       .  S
C554        C555   1.420       .  A
C555        C556   1.412       .  A
C555        C559   1.516   1_655  S
C556        H560   1.083   1_655  S
C557        F570   1.385   1_545  S
C557        F571   1.382       .  S
C557        F572   1.382       .  S
C559        F567   1.383       .  S
C559        F568   1.383   1_455  S
C559        F569   1.384       .  S
C573        C574   1.401       .  A
C573        C578   1.403       .  A
C573        H583   1.083       .  S
C574        C579   1.482       .  S
C574        C575   1.418       .  A
C575        C576   1.409       .  A
C575        C580   1.520       .  S
C576        C577   1.403       .  A
C576        H581   1.083       .  S
C577        C578   1.414       .  A
C578        C582   1.518       .  S
C579        C584   1.415       .  A
C579        C588   1.400       .  A
C580        F596   1.382       .  S
C580        F597   1.382       .  S
C580        F598   1.385       .  S
C582        F593   1.385       .  S
C582        F594   1.382       .  S
C582        F595   1.384       .  S
C584        C585   1.408       .  A
C584        C589   1.519       .  S
C585        C586   1.408       .  A
C585        H590   1.083       .  S
C586        C587   1.420       .  A
C587        C588   1.403       .  A
C587        C591   1.518       .  S
C588        H592   1.084       .  S
C589        F602   1.385       .  S
C589        F603   1.382       .  S
C589        F604   1.382       .  S
C591        F599   1.382       .  S
C591        F600   1.381       .  S
C591        F601   1.385       .  S
C605        C606   1.400       .  A
C605        C610   1.407       .  A
C605        H615   1.083       .  S
C606        C611   1.484       .  S
C606        C607   1.417       .  A
C607        C608   1.406       .  A
C607        C612   1.520       .  S
C608        C609   1.403       .  A
C608        H613   1.083       .  S
C609        C610   1.423       .  A
C610        C614   1.522       .  S
C611        C616   1.414       .  A
C611        C620   1.397       .  A
C612        F628   1.382       .  S
C612        F629   1.382       .  S
C612        F630   1.385       .  S
C614        F625   1.382       .  S
C614        F626   1.385       .  S
C614        F627   1.382       .  S
C616        C617   1.411       .  A
C616        C621   1.519       .  S
C617        C618   1.408       .  A
C617        H622   1.083       .  S
C618        C619   1.426       .  A
C619        C620   1.404       .  A
C619        C623   1.521       .  S
C620        H624   1.084       .  S
C621        F634   1.385       .  S
C621        F635   1.382       .  S
C621        F636   1.382       .  S
C623        F631   1.386       .  S
C623        F632   1.383       .  S
C623        F633   1.382       .  S
C637        C638   1.400       .  A
C637        C642   1.403       .  A
C637        H647   1.083       .  S
C638        C643   1.479       .  S
C638        C639   1.415       .  A
C639        C640   1.408       .  A
C639        C644   1.518       .  S
C640        C641   1.403       .  A
C640        H645   1.083       .  S
C641        C642   1.418       .  A
C642        C646   1.520       .  S
C643        C648   1.415       .  A
C643        C652   1.399       .  A
C644        F660   1.383       .  S
C644        F661   1.383       .  S
C644        F662   1.384       .  S
C646        F657   1.382       .  S
C646        F658   1.384       .  S
C646        F659   1.383       .  S
C648        C649   1.403       .  A
C648        C653   1.522       .  S
C649        C650   1.405       .  A
C649        H654   1.080       .  S
C650        C651   1.428       .  A
C651        C652   1.409       .  A
C651        C655   1.520       .  S
C652        H656   1.083       .  S
C653        F666   1.380       .  S
C653        F667   1.384       .  S
C653        F668   1.380       .  S
C655        F663   1.385       .  S
C655        F664   1.383       .  S
C655        F665   1.382       .  S
C669        C670   1.405       .  A
C669        C674   1.414       .  A
C669        H679   1.083       .  S
C670        C675   1.489       .  S
C670        C671   1.414   1_455  A
C671        C672   1.403       .  A
C671        C676   1.520       .  S
C672        C673   1.405       .  A
C672        H677   1.083       .  S
C673        C674   1.422   1_655  A
C674        C678   1.519       .  S
C675        C680   1.414       .  A
C675        C684   1.401       .  A
C676        F692   1.382   1_655  S
C676        F693   1.382       .  S
C676        F694   1.385       .  S
C678        F689   1.385       .  S
C678        F690   1.383       .  S
C678        F691   1.383   1_455  S
C680        C681   1.410       .  A
C680        C685   1.519       .  S
C681        C682   1.408       .  A
C681        H686   1.079       .  S
C682        C683   1.424       .  A
C683        C684   1.409       .  A
C683        C687   1.520       .  S
C684        H688   1.083       .  S
C685        F698   1.383       .  S
C685        F699   1.382       .  S
C685        F700   1.383   1_455  S
C687        F695   1.385       .  S
C687        F696   1.383       .  S
C687        F697   1.383       .  S
C701        C702   1.396       .  A
C701        C706   1.404       .  A
C701        H711   1.083       .  S
C702        C707   1.479       .  S
C702        C703   1.411       .  A
C703        C704   1.408       .  A
C703        C708   1.520       .  S
C704        C705   1.410       .  A
C704        H709   1.080       .  S
C705        C706   1.429       .  A
C706        C710   1.523       .  S
C707        C712   1.415       .  A
C707        C716   1.403       .  A
C708        F724   1.382       .  S
C708        F725   1.382   1_554  S
C708        F726   1.383   1_554  S
C710        F721   1.383       .  S
C710        F722   1.385       .  S
C710        F723   1.383       .  S
C712        C713   1.403       .  A
C712        C717   1.521       .  S
C713        C714   1.401       .  A
C713        H718   1.083       .  S
C714        C715   1.415       .  A
C715        C716   1.408       .  A
C715        C719   1.518       .  S
C716        H720   1.083       .  S
C717        F730   1.385   1_655  S
C717        F731   1.382       .  S
C717        F732   1.381       .  S
C719        F727   1.385       .  S
C719        F728   1.384       .  S
C719        F729   1.381       .  S
C733        C734   1.400       .  A
C733        C738   1.405       .  A
C733        H743   1.084   1_554  S
C734        C739   1.482       .  S
C734        C735   1.414       .  A
C735        C736   1.407       .  A
C735        C740   1.519       .  S
C736        C737   1.407       .  A
C736        H741   1.083       .  S
C737        C738   1.420       .  A
C738        C742   1.518   1_554  S
C739        C744   1.415       .  A
C739        C748   1.401       .  A
C740        F756   1.383       .  S
C740        F757   1.382       .  S
C740        F758   1.385       .  S
C742        F753   1.382       .  S
C742        F754   1.385       .  S
C742        F755   1.384       .  S
C744        C745   1.403       .  A
C744        C749   1.521       .  S
C745        C746   1.406       .  A
C745        H750   1.083       .  S
C746        C747   1.424       .  A
C747        C748   1.409       .  A
C747        C751   1.521       .  S
C748        H752   1.083       .  S
C749        F762   1.383       .  S
C749        F763   1.381   1_554  S
C749        F764   1.382       .  S
C751        F759   1.385   1_655  S
C751        F760   1.383       .  S
C751        F761   1.383       .  S
C765        C766   1.401       .  A
C765        C770   1.410       .  A
C765        H775   1.083       .  S
C766        C771   1.487       .  S
C766        C767   1.414       .  A
C767        C768   1.407       .  A
C767        C772   1.521       .  S
C768        C769   1.409       .  A
C768        H773   1.083       .  S
C769        C770   1.425       .  A
C770        C774   1.521       .  S
C771        C776   1.415       .  A
C771        C780   1.402       .  A
C772        F788   1.382       .  S
C772        F789   1.382       .  S
C772        F790   1.384       .  S
C774        F785   1.385       .  S
C774        F786   1.382       .  S
C774        F787   1.382       .  S
C776        C777   1.408       .  A
C776        C781   1.519       .  S
C777        C778   1.405       .  A
C777        H782   1.083       .  S
C778        C779   1.419       .  A
C779        C780   1.410       .  A
C779        C783   1.517       .  S
C780        H784   1.083       .  S
C781        F794   1.384       .  S
C781        F795   1.383       .  S
C781        F796   1.382       .  S
C783        F791   1.385       .  S
C783        F792   1.382   1_556  S
C783        F793   1.383   1_556  S
C797        C798   1.400       .  A
C797        C802   1.402       .  A
C797        H807   1.083       .  S
C798        C803   1.486       .  S
C798        C799   1.419       .  A
C799        C800   1.410       .  A
C799        C804   1.519       .  S
C800        C801   1.404       .  A
C800        H805   1.083       .  S
C801        C802   1.415       .  A
C802        C806   1.517       .  S
C803        C808   1.418       .  A
C803        C812   1.402       .  A
C804        F820   1.382       .  S
C804        F821   1.383       .  S
C804        F822   1.385       .  S
C806        F817   1.384       .  S
C806        F818   1.385       .  S
C806        F819   1.380       .  S
C808        C809   1.407   1_655  A
C808        C813   1.521       .  S
C809        C810   1.405       .  A
C809        H814   1.083       .  S
C810        C811   1.418       .  A
C811        C812   1.405   1_455  A
C811        C815   1.519       .  S
C812        H816   1.083       .  S
C813        F826   1.385       .  S
C813        F827   1.382       .  S
C813        F828   1.383       .  S
C815        F823   1.385       .  S
C815        F824   1.382       .  S
C815        F825   1.381       .  S
C829        C830   1.399       .  A
C829        C834   1.406       .  A
C829        H839   1.083       .  S
C830        C835   1.481       .  S
C830        C831   1.413       .  A
C831        C832   1.409       .  A
C831        C836   1.520       .  S
C832        C833   1.408       .  A
C832        H837   1.080       .  S
C833        C834   1.423       .  A
C834        C838   1.519       .  S
C835        C840   1.414       .  A
C835        C844   1.401       .  A
C836        F852   1.382       .  S
C836        F853   1.382       .  S
C836        F854   1.382       .  S
C838        F849   1.382       .  S
C838        F850   1.385       .  S
C838        F851   1.383       .  S
C840        C841   1.405       .  A
C840        C845   1.521       .  S
C841        C842   1.405       .  A
C841        H846   1.081       .  S
C842        C843   1.420       .  A
C843        C844   1.407       .  A
C843        C847   1.520       .  S
C844        H848   1.083       .  S
C845        F858   1.385       .  S
C845        F859   1.382       .  S
C845        F860   1.382       .  S
C847        F855   1.384       .  S
C847        F856   1.383       .  S
C847        F857   1.384       .  S
C861        C862   1.401       .  A
C861        C866   1.407       .  A
C861        H871   1.083       .  S
C862        C867   1.481       .  S
C862        C863   1.415       .  A
C863        C864   1.405       .  A
C863        C868   1.519       .  S
C864        C865   1.403       .  A
C864        H869   1.083       .  S
C865        C866   1.419       .  A
C866        C870   1.519       .  S
C867        C872   1.414       .  A
C867        C876   1.398       .  A
C868        F884   1.383       .  S
C868        F885   1.382       .  S
C868        F886   1.385       .  S
C870        F881   1.383       .  S
C870        F882   1.385       .  S
C870        F883   1.383       .  S
C872        C873   1.406       .  A
C872        C877   1.520       .  S
C873        C874   1.407       .  A
C873        H878   1.083       .  S
C874        C875   1.425       .  A
C875        C876   1.407       .  A
C875        C879   1.520       .  S
C876        H880   1.083       .  S
C877        F890   1.384       .  S
C877        F891   1.383       .  S
C877        F892   1.382       .  S
C879        F887   1.385       .  S
C879        F888   1.383       .  S
C879        F889   1.382       .  S
C893        C894   1.401       .  A
C893        C898   1.406       .  A
C893        H903   1.083       .  S
C894        C899   1.486       .  S
C894        C895   1.417       .  A
C895        C896   1.409       .  A
C895        C900   1.519       .  S
C896        C897   1.404       .  A
C896        H901   1.083       .  S
C897        C898   1.419       .  A
C898        C902   1.519       .  S
C899        C904   1.416       .  A
C899        C908   1.400       .  A
C900        F916   1.382       .  S
C900        F917   1.382       .  S
C900        F918   1.385       .  S
C902        F913   1.384       .  S
C902        F914   1.384       .  S
C902        F915   1.381       .  S
C904        C905   1.411       .  A
C904        C909   1.520       .  S
C905        C906   1.406       .  A
C905        H910   1.083       .  S
C906        C907   1.421       .  A
C907        C908   1.406       .  A
C907        C911   1.520       .  S
C908        H912   1.083       .  S
C909        F922   1.384       .  S
C909        F923   1.382       .  S
C909        F924   1.382       .  S
C911        F919   1.382       .  S
C911        F920   1.384       .  S
C911        F921   1.385       .  S
C925        C926   1.403       .  A
C925        C930   1.410       .  A
C925        H935   1.083       .  S
C926        C931   1.490       .  S
C926        C927   1.417       .  A
C927        C928   1.408       .  A
C927        C932   1.520       .  S
C928        C929   1.405       .  A
C928        H933   1.083       .  S
C929        C930   1.418       .  A
C930        C934   1.518       .  S
C931        C936   1.416       .  A
C931        C940   1.403       .  A
C932        F948   1.382       .  S
C932        F949   1.382       .  S
C932        F950   1.385       .  S
C934        F945   1.384       .  S
C934        F946   1.382       .  S
C934        F947   1.384       .  S
C936        C937   1.408       .  A
C936        C941   1.520       .  S
C937        C938   1.406       .  A
C937        H942   1.083       .  S
C938        C939   1.421       .  A
C939        C940   1.411       .  A
C939        C943   1.519       .  S
C940        H944   1.083       .  S
C941        F954   1.385       .  S
C941        F955   1.382       .  S
C941        F956   1.382       .  S
C943        F951   1.382       .  S
C943        F952   1.383       .  S
C943        F953   1.385       .  S
C957        C958   1.401       .  A
C957        C962   1.408       .  A
C957        H967   1.083       .  S
C958        C963   1.483       .  S
C958        C959   1.415       .  A
C959        C960   1.406       .  A
C959        C964   1.520       .  S
C960        C961   1.404       .  A
C960        H965   1.083       .  S
C961        C962   1.419       .  A
C962        C966   1.518       .  S
C963        C968   1.412       .  A
C963        C972   1.400       .  A
C964        F980   1.382       .  S
C964        F981   1.382       .  S
C964        F982   1.385       .  S
C966        F977   1.382       .  S
C966        F978   1.385       .  S
C966        F979   1.383       .  S
C968        C969   1.405       .  A
C968        C973   1.519       .  S
C969        C970   1.406       .  A
C969        H974   1.078       .  S
C970        C971   1.427       .  A
C971        C972   1.408       .  A
C971        C975   1.523       .  S
C972        H976   1.083       .  S
C973        F986   1.383   1_565  S
C973        F987   1.382       .  S
C973        F988   1.382   1_565  S
C975        F983   1.385       .  S
C975        F984   1.384   1_455  S
C975        F985   1.382       .  S
C989        C990   1.402       .  A
C989        C994   1.409       .  A
C989        H999   1.083       .  S
C990        C995   1.486       .  S
C990        C991   1.416       .  A
C991        C992   1.405       .  A
C991        C996   1.521       .  S
C992        C993   1.406       .  A
C992        H997   1.083   1_545  S
C993        C994   1.419       .  A
C994        C998   1.517       .  S
C995       C1000   1.416       .  A
C995       C1004   1.398       .  A
C996       F1012   1.382       .  S
C996       F1013   1.383       .  S
C996       F1014   1.385   1_545  S
C998       F1009   1.385       .  S
C998       F1010   1.383       .  S
C998       F1011   1.382       .  S
C1000      C1001   1.409       .  A
C1000      C1005   1.519       .  S
C1001      C1002   1.407       .  A
C1001      H1006   1.082       .  S
C1002      C1003   1.426       .  A
C1003      C1004   1.404       .  A
C1003      C1007   1.521       .  S
C1004      H1008   1.083       .  S
C1005      F1018   1.384       .  S
C1005      F1019   1.382       .  S
C1005      F1020   1.382       .  S
C1007      F1015   1.385       .  S
C1007      F1016   1.383       .  S
C1007      F1017   1.382       .  S
C1021      C1022   1.402       .  A
C1021      C1026   1.410       .  A
C1021      H1031   1.083       .  S
C1022      C1027   1.481       .  S
C1022      C1023   1.413       .  A
C1023      C1024   1.402       .  A
C1023      C1028   1.521       .  S
C1024      C1025   1.407       .  A
C1024      H1029   1.083       .  S
C1025      C1026   1.420       .  A
C1026      C1030   1.517       .  S
C1027      C1032   1.416       .  A
C1027      C1036   1.402       .  A
C1028      F1044   1.382       .  S
C1028      F1045   1.382       .  S
C1028      F1046   1.385       .  S
C1030      F1041   1.385       .  S
C1030      F1042   1.382       .  S
C1030      F1043   1.383       .  S
C1032      C1033   1.404       .  A
C1032      C1037   1.520   1_565  S
C1033      C1034   1.403       .  A
C1033      H1038   1.083       .  S
C1034      C1035   1.417       .  A
C1035      C1036   1.406       .  A
C1035      C1039   1.518       .  S
C1036      H1040   1.083       .  S
C1037      F1050   1.385       .  S
C1037      F1051   1.382       .  S
C1037      F1052   1.382       .  S
C1039      F1047   1.382       .  S
C1039      F1048   1.383       .  S
C1039      F1049   1.385       .  S
C1053      C1054   1.401       .  A
C1053      C1058   1.403       .  A
C1053      H1063   1.083       .  S
C1054      C1059   1.473       .  S
C1054      C1055   1.414       .  A
C1055      C1056   1.402       .  A
C1055      C1060   1.520       .  S
C1056      C1057   1.403       .  A
C1056      H1061   1.084       .  S
C1057      C1058   1.416       .  A
C1058      C1062   1.520       .  S
C1059      C1064   1.413       .  A
C1059      C1068   1.398       .  A
C1060      F1076   1.382       .  S
C1060      F1077   1.382       .  S
C1060      F1078   1.384       .  S
C1062      F1073   1.385       .  S
C1062      F1074   1.382       .  S
C1062      F1075   1.384       .  S
C1064      C1065   1.402       .  A
C1064      C1069   1.522       .  S
C1065      C1066   1.406       .  A
C1065      H1070   1.083       .  S
C1066      C1067   1.423       .  A
C1067      C1068   1.405       .  A
C1067      C1071   1.520   1_565  S
C1068      H1072   1.083       .  S
C1069      F1082   1.384       .  S
C1069      F1083   1.382       .  S
C1069      F1084   1.382       .  S
C1071      F1079   1.383       .  S
C1071      F1080   1.383       .  S
C1071      F1081   1.385       .  S
C1085      C1086   1.402       .  A
C1085      C1090   1.407       .  A
C1085      H1095   1.083       .  S
C1086      C1091   1.481   1_545  S
C1086      C1087   1.415   1_545  A
C1087      C1088   1.405       .  A
C1087      C1092   1.520       .  S
C1088      C1089   1.404   1_565  A
C1088      H1093   1.083       .  S
C1089      C1090   1.416       .  A
C1090      C1094   1.518       .  S
C1091      C1096   1.412   1_565  A
C1091      C1100   1.397       .  A
C1092      F1108   1.382       .  S
C1092      F1109   1.382   1_455  S
C1092      F1110   1.385       .  S
C1094      F1105   1.382       .  S
C1094      F1106   1.385       .  S
C1094      F1107   1.384       .  S
C1096      C1097   1.406   1_545  A
C1096      C1101   1.519       .  S
C1097      C1098   1.409       .  A
C1097      H1102   1.082   1_465  S
C1098      C1099   1.430       .  A
C1099      C1100   1.406       .  A
C1099      C1103   1.523       .  S
C1100      H1104   1.083       .  S
C1101      F1114   1.384       .  S
C1101      F1115   1.382       .  S
C1101      F1116   1.382       .  S
C1103      F1111   1.385       .  S
C1103      F1112   1.383       .  S
C1103      F1113   1.384   1_455  S
C1117      C1118   1.401       .  A
C1117      C1122   1.409       .  A
C1117      H1127   1.083       .  S
C1118      C1123   1.479       .  S
C1118      C1119   1.413       .  A
C1119      C1120   1.400       .  A
C1119      C1124   1.522       .  S
C1120      C1121   1.406       .  A
C1120      H1125   1.078       .  S
C1121      C1122   1.422       .  A
C1122      C1126   1.519       .  S
C1123      C1128   1.413       .  A
C1123      C1132   1.397       .  A
C1124      F1140   1.382       .  S
C1124      F1141   1.382       .  S
C1124      F1142   1.385       .  S
C1126      F1137   1.382       .  S
C1126      F1138   1.385       .  S
C1126      F1139   1.384       .  S
C1128      C1129   1.407       .  A
C1128      C1133   1.519       .  S
C1129      C1130   1.407       .  A
C1129      H1134   1.083       .  S
C1130      C1131   1.423       .  A
C1131      C1132   1.403       .  A
C1131      C1135   1.521       .  S
C1132      H1136   1.083       .  S
C1133      F1146   1.384       .  S
C1133      F1147   1.383       .  S
C1133      F1148   1.383       .  S
C1135      F1143   1.385       .  S
C1135      F1144   1.381       .  S
C1135      F1145   1.383       .  S
C1149      C1150   1.398       .  A
C1149      C1154   1.402       .  A
C1149      H1159   1.084       .  S
C1150      C1155   1.478       .  S
C1150      C1151   1.414       .  A
C1151      C1152   1.406       .  A
C1151      C1156   1.519       .  S
C1152      C1153   1.405       .  A
C1152      H1157   1.082       .  S
C1153      C1154   1.418       .  A
C1154      C1158   1.515       .  S
C1155      C1160   1.416       .  A
C1155      C1164   1.399       .  A
C1156      F1172   1.382       .  S
C1156      F1173   1.382       .  S
C1156      F1174   1.384       .  S
C1158      F1169   1.382       .  S
C1158      F1170   1.383       .  S
C1158      F1171   1.384       .  S
C1160      C1161   1.407       .  A
C1160      C1165   1.520       .  S
C1161      C1162   1.403       .  A
C1161      H1166   1.083       .  S
C1162      C1163   1.415       .  A
C1163      C1164   1.401       .  A
C1163      C1167   1.517       .  S
C1164      H1168   1.083       .  S
C1165      F1178   1.384       .  S
C1165      F1179   1.382       .  S
C1165      F1180   1.382       .  S
C1167      F1175   1.378       .  S
C1167      F1176   1.383       .  S
C1167      F1177   1.385       .  S
C1181      C1182   1.400   1_545  A
C1181      C1186   1.406       .  A
C1181      H1191   1.083   1_545  S
C1182      C1187   1.483       .  S
C1182      C1183   1.413   1_565  A
C1183      C1184   1.407       .  A
C1183      C1188   1.519   1_545  S
C1184      C1185   1.407       .  A
C1184      H1189   1.079       .  S
C1185      C1186   1.425       .  A
C1186      C1190   1.522       .  S
C1187      C1192   1.415       .  A
C1187      C1196   1.402       .  A
C1188      F1204   1.382       .  S
C1188      F1205   1.382       .  S
C1188      F1206   1.384   1_565  S
C1190      F1201   1.385       .  S
C1190      F1202   1.383       .  S
C1190      F1203   1.383       .  S
C1192      C1193   1.404       .  A
C1192      C1197   1.520   1_565  S
C1193      C1194   1.403       .  A
C1193      H1198   1.083       .  S
C1194      C1195   1.422       .  A
C1195      C1196   1.409       .  A
C1195      C1199   1.520       .  S
C1196      H1200   1.083       .  S
C1197      F1210   1.384       .  S
C1197      F1211   1.382       .  S
C1197      F1212   1.382       .  S
C1199      F1207   1.383       .  S
C1199      F1208   1.382       .  S
C1199      F1209   1.384       .  S
C1213      C1214   1.403       .  A
C1213      C1218   1.408       .  A
C1213      H1223   1.083       .  S
C1214      C1219   1.487       .  S
C1214      C1215   1.417       .  A
C1215      C1216   1.405       .  A
C1215      C1220   1.519       .  S
C1216      C1217   1.402       .  A
C1216      H1221   1.083       .  S
C1217      C1218   1.419       .  A
C1218      C1222   1.520       .  S
C1219      C1224   1.414       .  A
C1219      C1228   1.403       .  A
C1220      F1236   1.382       .  S
C1220      F1237   1.382       .  S
C1220      F1238   1.385       .  S
C1222      F1233   1.384       .  S
C1222      F1234   1.382       .  S
C1222      F1235   1.381       .  S
C1224      C1225   1.407       .  A
C1224      C1229   1.520       .  S
C1225      C1226   1.406       .  A
C1225      H1230   1.083       .  S
C1226      C1227   1.421       .  A
C1227      C1228   1.411       .  A
C1227      C1231   1.519       .  S
C1228      H1232   1.083       .  S
C1229      F1242   1.384       .  S
C1229      F1243   1.382       .  S
C1229      F1244   1.382       .  S
C1231      F1239   1.382       .  S
C1231      F1240   1.383       .  S
C1231      F1241   1.385       .  S
C1245      C1246   1.401       .  A
C1245      C1250   1.407       .  A
C1245      H1255   1.083       .  S
C1246      C1251   1.474       .  S
C1246      C1247   1.413       .  A
C1247      C1248   1.400       .  A
C1247      C1252   1.521       .  S
C1248      C1249   1.403       .  A
C1248      H1253   1.084       .  S
C1249      C1250   1.420       .  A
C1250      C1254   1.521       .  S
C1251      C1256   1.413       .  A
C1251      C1260   1.399       .  A
C1252      F1268   1.382       .  S
C1252      F1269   1.381       .  S
C1252      F1270   1.385       .  S
C1254      F1265   1.385       .  S
C1254      F1266   1.382       .  S
C1254      F1267   1.380       .  S
C1256      C1257   1.403       .  A
C1256      C1261   1.521       .  S
C1257      C1258   1.405       .  A
C1257      H1262   1.083       .  S
C1258      C1259   1.419       .  A
C1259      C1260   1.404       .  A
C1259      C1263   1.520       .  S
C1260      H1264   1.083       .  S
C1261      F1274   1.385       .  S
C1261      F1275   1.382       .  S
C1261      F1276   1.382       .  S
C1263      F1271   1.382       .  S
C1263      F1272   1.384       .  S
C1263      F1273   1.385       .  S
C1277      C1278   1.403       .  A
C1277      C1282   1.406       .  A
C1277      H1287   1.083       .  S
C1278      C1283   1.483       .  S
C1278      C1279   1.416       .  A
C1279      C1280   1.407       .  A
C1279      C1284   1.519       .  S
C1280      C1281   1.402       .  A
C1280      H1285   1.083       .  S
C1281      C1282   1.413       .  A
C1282      C1286   1.517       .  S
C1283      C1288   1.414       .  A
C1283      C1292   1.398       .  A
C1284      F1300   1.382       .  S
C1284      F1301   1.382       .  S
C1284      F1302   1.384       .  S
C1286      F1297   1.383       .  S
C1286      F1298   1.385       .  S
C1286      F1299   1.382       .  S
C1288      C1289   1.404       .  A
C1288      C1293   1.520       .  S
C1289      C1290   1.409       .  A
C1289      H1294   1.082       .  S
C1290      C1291   1.428       .  A
C1291      C1292   1.408       .  A
C1291      C1295   1.521       .  S
C1292      H1296   1.083       .  S
C1293      F1306   1.385       .  S
C1293      F1307   1.381       .  S
C1293      F1308   1.383       .  S
C1295      F1303   1.383       .  S
C1295      F1304   1.383       .  S
C1295      F1305   1.385       .  S
C1309      C1310   1.400       .  A
C1309      C1314   1.407       .  A
C1309      H1319   1.083       .  S
C1310      C1315   1.481       .  S
C1310      C1311   1.416   1_545  A
C1311      C1312   1.404       .  A
C1311      C1316   1.520       .  S
C1312      C1313   1.405       .  A
C1312      H1317   1.083       .  S
C1313      C1314   1.422   1_565  A
C1314      C1318   1.521       .  S
C1315      C1320   1.416       .  A
C1315      C1324   1.397       .  A
C1316      F1332   1.383       .  S
C1316      F1333   1.381       .  S
C1316      F1334   1.385       .  S
C1318      F1329   1.382       .  S
C1318      F1330   1.384       .  S
C1318      F1331   1.385       .  S
C1320      C1321   1.410       .  A
C1320      C1325   1.518       .  S
C1321      C1322   1.404       .  A
C1321      H1326   1.083       .  S
C1322      C1323   1.419       .  A
C1323      C1324   1.402       .  A
C1323      C1327   1.516       .  S
C1324      H1328   1.084       .  S
C1325      F1338   1.385       .  S
C1325      F1339   1.383       .  S
C1325      F1340   1.382       .  S
C1327      F1335   1.385       .  S
C1327      F1336   1.384       .  S
C1327      F1337   1.380   1_545  S
C1341      C1342   1.397       .  A
C1341      C1346   1.404       .  A
C1341      H1351   1.083       .  S
C1342      C1347   1.475       .  S
C1342      C1343   1.413       .  A
C1343      C1344   1.405       .  A
C1343      C1348   1.519       .  S
C1344      C1345   1.405       .  A
C1344      H1349   1.083       .  S
C1345      C1346   1.424       .  A
C1346      C1350   1.522       .  S
C1347      C1352   1.412       .  A
C1347      C1356   1.402       .  A
C1348      F1364   1.383       .  S
C1348      F1365   1.382       .  S
C1348      F1366   1.385       .  S
C1350      F1361   1.385       .  S
C1350      F1362   1.383       .  S
C1350      F1363   1.383       .  S
C1352      C1353   1.399       .  A
C1352      C1357   1.522       .  S
C1353      C1354   1.403       .  A
C1353      H1358   1.079       .  S
C1354      C1355   1.419       .  A
C1355      C1356   1.408       .  A
C1355      C1359   1.518       .  S
C1356      H1360   1.083       .  S
C1357      F1370   1.385       .  S
C1357      F1371   1.382       .  S
C1357      F1372   1.382       .  S
C1359      F1367   1.383       .  S
C1359      F1368   1.383       .  S
C1359      F1369   1.385       .  S
C1373      C1374   1.402       .  A
C1373      C1378   1.409       .  A
C1373      H1383   1.083       .  S
C1374      C1379   1.476       .  S
C1374      C1375   1.413       .  A
C1375      C1376   1.401       .  A
C1375      C1380   1.523       .  S
C1376      C1377   1.406       .  A
C1376      H1381   1.083       .  S
C1377      C1378   1.419       .  A
C1378      C1382   1.518       .  S
C1379      C1384   1.414       .  A
C1379      C1388   1.399       .  A
C1380      F1396   1.382       .  S
C1380      F1397   1.382       .  S
C1380      F1398   1.384       .  S
C1382      F1393   1.385       .  S
C1382      F1394   1.382       .  S
C1382      F1395   1.383       .  S
C1384      C1385   1.406       .  A
C1384      C1389   1.520       .  S
C1385      C1386   1.405       .  A
C1385      H1390   1.083       .  S
C1386      C1387   1.416       .  A
C1387      C1388   1.403       .  A
C1387      C1391   1.516       .  S
C1388      H1392   1.083       .  S
C1389      F1402   1.385       .  S
C1389      F1403   1.382       .  S
C1389      F1404   1.382       .  S
C1391      F1399   1.382       .  S
C1391      F1400   1.384       .  S
C1391      F1401   1.384       .  S
C1405      C1406   1.399       .  A
C1405      C1410   1.404       .  A
C1405      H1415   1.083       .  S
C1406      C1411   1.472       .  S
C1406      C1407   1.412       .  A
C1407      C1408   1.403       .  A
C1407      C1412   1.521       .  S
C1408      C1409   1.407       .  A
C1408      H1413   1.083       .  S
C1409      C1410   1.420       .  A
C1410      C1414   1.519       .  S
C1411      C1416   1.414       .  A
C1411      C1420   1.400       .  A
C1412      F1428   1.382       .  S
C1412      F1429   1.382       .  S
C1412      F1430   1.385       .  S
C1414      F1425   1.383       .  S
C1414      F1426   1.385       .  S
C1414      F1427   1.383       .  S
C1416      C1417   1.401   1_655  A
C1416      C1421   1.520       .  S
C1417      C1418   1.403       .  A
C1417      H1422   1.084       .  S
C1418      C1419   1.415       .  A
C1419      C1420   1.403   1_455  A
C1419      C1423   1.516       .  S
C1420      H1424   1.083       .  S
C1421      F1434   1.385       .  S
C1421      F1435   1.382       .  S
C1421      F1436   1.382       .  S
C1423      F1431   1.384   1_455  S
C1423      F1432   1.382       .  S
C1423      F1433   1.384       .  S
C1437      C1438   1.402       .  A
C1437      C1442   1.405       .  A
C1437      H1447   1.083       .  S
C1438      C1443   1.482       .  S
C1438      C1439   1.417       .  A
C1439      C1440   1.408       .  A
C1439      C1444   1.519       .  S
C1440      C1441   1.402       .  A
C1440      H1445   1.083       .  S
C1441      C1442   1.412       .  A
C1442      C1446   1.516       .  S
C1443      C1448   1.411       .  A
C1443      C1452   1.398       .  A
C1444      F1460   1.382       .  S
C1444      F1461   1.382       .  S
C1444      F1462   1.385       .  S
C1446      F1457   1.385       .  S
C1446      F1458   1.382       .  S
C1446      F1459   1.383       .  S
C1448      C1449   1.407       .  A
C1448      C1453   1.520       .  S
C1449      C1450   1.413       .  A
C1449      H1454   1.081       .  S
C1450      C1451   1.429       .  A
C1451      C1452   1.407       .  A
C1451      C1455   1.523       .  S
C1452      H1456   1.083       .  S
C1453      F1466   1.384       .  S
C1453      F1467   1.382       .  S
C1453      F1468   1.381       .  S
C1455      F1463   1.385       .  S
C1455      F1464   1.383       .  S
C1455      F1465   1.383       .  S
C1469      C1470   1.402       .  A
C1469      C1474   1.409       .  A
C1469      H1479   1.083       .  S
C1470      C1475   1.492       .  S
C1470      C1471   1.416       .  A
C1471      C1472   1.410       .  A
C1471      C1476   1.519       .  S
C1472      C1473   1.407       .  A
C1472      H1477   1.083       .  S
C1473      C1474   1.423       .  A
C1474      C1478   1.521       .  S
C1475      C1480   1.418       .  A
C1475      C1484   1.401       .  A
C1476      F1492   1.382       .  S
C1476      F1493   1.381       .  S
C1476      F1494   1.385       .  S
C1478      F1489   1.384       .  S
C1478      F1490   1.383       .  S
C1478      F1491   1.384       .  S
C1480      C1481   1.413       .  A
C1480      C1485   1.520       .  S
C1481      C1482   1.406       .  A
C1481      H1486   1.083       .  S
C1482      C1483   1.420       .  A
C1483      C1484   1.408       .  A
C1483      C1487   1.519       .  S
C1484      H1488   1.083       .  S
C1485      F1498   1.384       .  S
C1485      F1499   1.382       .  S
C1485      F1500   1.382       .  S
C1487      F1495   1.382   1_455  S
C1487      F1496   1.384       .  S
C1487      F1497   1.385   1_455  S
C1501      C1502   1.400       .  A
C1501      C1506   1.408       .  A
C1501      H1511   1.083       .  S
C1502      C1507   1.488   1_655  S
C1502      C1503   1.415   1_655  A
C1503      C1504   1.409   1_455  A
C1503      C1508   1.519       .  S
C1504      C1505   1.407       .  A
C1504      H1509   1.083   1_655  S
C1505      C1506   1.424       .  A
C1506      C1510   1.520       .  S
C1507      C1512   1.417       .  A
C1507      C1516   1.405       .  A
C1508      F1524   1.383       .  S
C1508      F1525   1.382       .  S
C1508      F1526   1.384       .  S
C1510      F1521   1.382   1_545  S
C1510      F1522   1.385       .  S
C1510      F1523   1.383       .  S
C1512      C1513   1.406       .  A
C1512      C1517   1.521       .  S
C1513      C1514   1.403       .  A
C1513      H1518   1.083       .  S
C1514      C1515   1.416       .  A
C1515      C1516   1.411       .  A
C1515      C1519   1.518       .  S
C1516      H1520   1.083       .  S
C1517      F1530   1.384       .  S
C1517      F1531   1.382   1_455  S
C1517      F1532   1.382       .  S
C1519      F1527   1.384       .  S
C1519      F1528   1.382       .  S
C1519      F1529   1.384       .  S
C1533      C1534   1.402       .  A
C1533      C1538   1.408       .  A
C1533      H1543   1.083       .  S
C1534      C1539   1.481       .  S
C1534      C1535   1.415       .  A
C1535      C1536   1.403       .  A
C1535      C1540   1.521       .  S
C1536      C1537   1.404       .  A
C1536      H1541   1.083       .  S
C1537      C1538   1.418       .  A
C1538      C1542   1.519       .  S
C1539      C1544   1.416       .  A
C1539      C1548   1.399       .  A
C1540      F1556   1.382       .  S
C1540      F1557   1.382       .  S
C1540      F1558   1.385       .  S
C1542      F1553   1.384       .  S
C1542      F1554   1.383       .  S
C1542      F1555   1.384       .  S
C1544      C1545   1.407       .  A
C1544      C1549   1.520       .  S
C1545      C1546   1.404       .  A
C1545      H1550   1.083       .  S
C1546      C1547   1.420       .  A
C1547      C1548   1.404       .  A
C1547      C1551   1.519       .  S
C1548      H1552   1.083       .  S
C1549      F1562   1.385       .  S
C1549      F1563   1.382       .  S
C1549      F1564   1.382       .  S
C1551      F1559   1.382       .  S
C1551      F1560   1.380       .  S
C1551      F1561   1.384       .  S
C1565      C1566   1.400       .  A
C1565      C1570   1.407       .  A
C1565      H1575   1.083       .  S
C1566      C1571   1.491       .  S
C1566      C1567   1.417       .  A
C1567      C1568   1.411       .  A
C1567      C1572   1.518       .  S
C1568      C1569   1.407       .  A
C1568      H1573   1.083       .  S
C1569      C1570   1.423       .  A
C1570      C1574   1.519       .  S
C1571      C1576   1.415       .  A
C1571      C1580   1.403       .  A
C1572      F1588   1.382       .  S
C1572      F1589   1.382       .  S
C1572      F1590   1.385   1_554  S
C1574      F1585   1.385       .  S
C1574      F1586   1.382       .  S
C1574      F1587   1.384       .  S
C1576      C1577   1.410       .  A
C1576      C1581   1.518   1_565  S
C1577      C1578   1.406       .  A
C1577      H1582   1.083       .  S
C1578      C1579   1.422       .  A
C1579      C1580   1.410       .  A
C1579      C1583   1.520       .  S
C1580      H1584   1.083       .  S
C1581      F1594   1.382       .  S
C1581      F1595   1.382       .  S
C1581      F1596   1.382       .  S
C1583      F1591   1.383       .  S
C1583      F1592   1.382       .  S
C1583      F1593   1.385       .  S
C1597      C1598   1.401       .  A
C1597      C1602   1.408       .  A
C1597      H1607   1.083       .  S
C1598      C1603   1.486       .  S
C1598      C1599   1.413       .  A
C1599      C1600   1.408       .  A
C1599      C1604   1.520       .  S
C1600      C1601   1.411       .  A
C1600      H1605   1.083       .  S
C1601      C1602   1.423       .  A
C1602      C1606   1.520       .  S
C1603      C1608   1.416       .  A
C1603      C1612   1.401       .  A
C1604      F1620   1.381       .  S
C1604      F1621   1.382       .  S
C1604      F1622   1.383       .  S
C1606      F1617   1.383       .  S
C1606      F1618   1.384       .  S
C1606      F1619   1.384       .  S
C1608      C1609   1.408       .  A
C1608      C1613   1.521       .  S
C1609      C1610   1.406       .  A
C1609      H1614   1.082       .  S
C1610      C1611   1.420       .  A
C1611      C1612   1.407       .  A
C1611      C1615   1.519       .  S
C1612      H1616   1.083       .  S
C1613      F1626   1.385       .  S
C1613      F1627   1.382       .  S
C1613      F1628   1.382       .  S
C1615      F1623   1.383       .  S
C1615      F1624   1.383       .  S
C1615      F1625   1.384       .  S
C1629      C1630   1.401       .  A
C1629      C1634   1.411       .  A
C1629      H1639   1.083       .  S
C1630      C1635   1.483       .  S
C1630      C1631   1.413       .  A
C1631      C1632   1.402       .  A
C1631      C1636   1.521       .  S
C1632      C1633   1.408       .  A
C1632      H1637   1.083       .  S
C1633      C1634   1.423       .  A
C1634      C1638   1.519   1_545  S
C1635      C1640   1.414       .  A
C1635      C1644   1.400       .  A
C1636      F1652   1.382       .  S
C1636      F1653   1.382       .  S
C1636      F1654   1.385       .  S
C1638      F1649   1.385       .  S
C1638      F1650   1.383       .  S
C1638      F1651   1.383   1_566  S
C1640      C1641   1.408       .  A
C1640      C1645   1.518       .  S
C1641      C1642   1.405       .  A
C1641      H1646   1.083       .  S
C1642      C1643   1.417       .  A
C1643      C1644   1.405       .  A
C1643      C1647   1.514       .  S
C1644      H1648   1.083       .  S
C1645      F1658   1.383       .  S
C1645      F1659   1.382       .  S
C1645      F1660   1.382       .  S
C1647      F1655   1.384       .  S
C1647      F1656   1.384       .  S
C1647      F1657   1.381       .  S
C1661      C1662   1.400       .  A
C1661      C1666   1.410       .  A
C1661      H1671   1.083       .  S
C1662      C1667   1.486       .  S
C1662      C1663   1.415       .  A
C1663      C1664   1.407       .  A
C1663      C1668   1.521   1_565  S
C1664      C1665   1.409       .  A
C1664      H1669   1.083       .  S
C1665      C1666   1.424       .  A
C1666      C1670   1.520       .  S
C1667      C1672   1.416       .  A
C1667      C1676   1.401       .  A
C1668      F1684   1.382   1_544  S
C1668      F1685   1.382       .  S
C1668      F1686   1.385       .  S
C1670      F1681   1.383       .  S
C1670      F1682   1.384       .  S
C1670      F1683   1.384       .  S
C1672      C1673   1.409       .  A
C1672      C1677   1.518       .  S
C1673      C1674   1.403       .  A
C1673      H1678   1.083       .  S
C1674      C1675   1.418       .  A
C1675      C1676   1.407       .  A
C1675      C1679   1.519   1_554  S
C1676      H1680   1.083       .  S
C1677      F1690   1.384       .  S
C1677      F1691   1.383       .  S
C1677      F1692   1.382       .  S
C1679      F1687   1.385       .  S
C1679      F1688   1.384       .  S
C1679      F1689   1.382       .  S
C1693      C1694   1.401       .  A
C1693      C1698   1.410       .  A
C1693      H1703   1.083       .  S
C1694      C1699   1.483       .  S
C1694      C1695   1.414       .  A
C1695      C1696   1.404       .  A
C1695      C1700   1.522       .  S
C1696      C1697   1.409       .  A
C1696      H1701   1.082       .  S
C1697      C1698   1.423       .  A
C1698      C1702   1.518       .  S
C1699      C1704   1.416       .  A
C1699      C1708   1.402       .  A
C1700      F1716   1.382       .  S
C1700      F1717   1.382       .  S
C1700      F1718   1.385       .  S
C1702      F1713   1.382       .  S
C1702      F1714   1.385       .  S
C1702      F1715   1.383       .  S
C1704      C1705   1.405       .  A
C1704      C1709   1.518       .  S
C1705      C1706   1.402       .  A
C1705      H1710   1.083       .  S
C1706      C1707   1.419       .  A
C1707      C1708   1.405       .  A
C1707      C1711   1.520       .  S
C1708      H1712   1.083       .  S
C1709      F1722   1.385       .  S
C1709      F1723   1.382       .  S
C1709      F1724   1.382       .  S
C1711      F1719   1.385       .  S
C1711      F1720   1.382       .  S
C1711      F1721   1.382       .  S
C1725      C1726   1.400       .  A
C1725      C1730   1.405       .  A
C1725      H1735   1.083       .  S
C1726      C1731   1.476       .  S
C1726      C1727   1.414       .  A
C1727      C1728   1.403       .  A
C1727      C1732   1.520       .  S
C1728      C1729   1.404       .  A
C1728      H1733   1.083       .  S
C1729      C1730   1.418       .  A
C1730      C1734   1.519       .  S
C1731      C1736   1.413       .  A
C1731      C1740   1.401       .  A
C1732      F1748   1.382       .  S
C1732      F1749   1.382       .  S
C1732      F1750   1.385       .  S
C1734      F1745   1.385       .  S
C1734      F1746   1.382       .  S
C1734      F1747   1.383       .  S
C1736      C1737   1.401       .  A
C1736      C1741   1.521       .  S
C1737      C1738   1.405       .  A
C1737      H1742   1.084       .  S
C1738      C1739   1.419       .  A
C1739      C1740   1.407       .  A
C1739      C1743   1.519       .  S
C1740      H1744   1.083       .  S
C1741      F1754   1.385       .  S
C1741      F1755   1.382       .  S
C1741      F1756   1.382       .  S
C1743      F1751   1.383       .  S
C1743      F1752   1.382       .  S
C1743      F1753   1.385       .  S
C1757      C1758   1.400       .  A
C1757      C1762   1.402       .  A
C1757      H1767   1.084       .  S
C1758      C1763   1.477       .  S
C1758      C1759   1.414       .  A
C1759      C1760   1.406       .  A
C1759      C1764   1.519       .  S
C1760      C1761   1.406       .  A
C1760      H1765   1.083       .  S
C1761      C1762   1.416       .  A
C1762      C1766   1.515       .  S
C1763      C1768   1.415       .  A
C1763      C1772   1.399       .  A
C1764      F1780   1.382       .  S
C1764      F1781   1.381       .  S
C1764      F1782   1.385       .  S
C1766      F1777   1.385       .  S
C1766      F1778   1.382       .  S
C1766      F1779   1.384       .  S
C1768      C1769   1.407       .  A
C1768      C1773   1.520       .  S
C1769      C1770   1.405       .  A
C1769      H1774   1.083       .  S
C1770      C1771   1.419       .  A
C1771      C1772   1.401       .  A
C1771      C1775   1.520       .  S
C1772      H1776   1.084       .  S
C1773      F1786   1.385       .  S
C1773      F1787   1.382       .  S
C1773      F1788   1.381       .  S
C1775      F1783   1.383       .  S
C1775      F1784   1.383       .  S
C1775      F1785   1.385       .  S
C1789      C1790   1.403       .  A
C1789      C1794   1.411       .  A
C1789      H1799   1.083       .  S
C1790      C1795   1.491       .  S
C1790      C1791   1.417       .  A
C1791      C1792   1.408       .  A
C1791      C1796   1.520       .  S
C1792      C1793   1.405       .  A
C1792      H1797   1.083       .  S
C1793      C1794   1.420       .  A
C1794      C1798   1.519       .  S
C1795      C1800   1.416       .  A
C1795      C1804   1.401       .  A
C1796      F1812   1.382       .  S
C1796      F1813   1.382       .  S
C1796      F1814   1.385       .  S
C1798      F1809   1.384       .  S
C1798      F1810   1.382       .  S
C1798      F1811   1.384       .  S
C1800      C1801   1.410       .  A
C1800      C1805   1.519       .  S
C1801      C1802   1.407       .  A
C1801      H1806   1.083       .  S
C1802      C1803   1.421       .  A
C1803      C1804   1.410       .  A
C1803      C1807   1.516       .  S
C1804      H1808   1.083       .  S
C1805      F1818   1.384       .  S
C1805      F1819   1.382       .  S
C1805      F1820   1.382       .  S
C1807      F1815   1.382       .  S
C1807      F1816   1.383       .  S
C1807      F1817   1.385       .  S
C1821      C1822   1.403       .  A
C1821      C1826   1.408       .  A
C1821      H1831   1.083       .  S
C1822      C1827   1.486       .  S
C1822      C1823   1.416       .  A
C1823      C1824   1.406       .  A
C1823      C1828   1.520       .  S
C1824      C1825   1.404       .  A
C1824      H1829   1.083       .  S
C1825      C1826   1.418       .  A
C1826      C1830   1.519       .  S
C1827      C1832   1.414       .  A
C1827      C1836   1.398       .  A
C1828      F1844   1.382       .  S
C1828      F1845   1.381       .  S
C1828      F1846   1.385       .  S
C1830      F1841   1.383       .  S
C1830      F1842   1.385       .  S
C1830      F1843   1.384       .  S
C1832      C1833   1.411       .  A
C1832      C1837   1.519       .  S
C1833      C1834   1.409       .  A
C1833      H1838   1.083       .  S
C1834      C1835   1.428       .  A
C1835      C1836   1.406       .  A
C1835      C1839   1.522       .  S
C1836      H1840   1.084       .  S
C1837      F1850   1.384       .  S
C1837      F1851   1.382       .  S
C1837      F1852   1.382       .  S
C1839      F1847   1.385       .  S
C1839      F1848   1.383       .  S
C1839      F1849   1.383       .  S
C1853      C1854   1.401       .  A
C1853      C1858   1.406       .  A
C1853      H1863   1.083       .  S
C1854      C1859   1.483       .  S
C1854      C1855   1.415       .  A
C1855      C1856   1.408       .  A
C1855      C1860   1.519       .  S
C1856      C1857   1.403       .  A
C1856      H1861   1.083       .  S
C1857      C1858   1.417       .  A
C1858      C1862   1.519       .  S
C1859      C1864   1.413       .  A
C1859      C1868   1.400       .  A
C1860      F1876   1.382       .  S
C1860      F1877   1.382       .  S
C1860      F1878   1.384       .  S
C1862      F1873   1.382       .  S
C1862      F1874   1.385       .  S
C1862      F1875   1.384       .  S
C1864      C1865   1.404   1_655  A
C1864      C1869   1.521       .  S
C1865      C1866   1.409       .  A
C1865      H1870   1.082       .  S
C1866      C1867   1.426       .  A
C1867      C1868   1.409   1_455  A
C1867      C1871   1.521       .  S
C1868      H1872   1.083       .  S
C1869      F1882   1.385       .  S
C1869      F1883   1.382       .  S
C1869      F1884   1.382       .  S
C1871      F1879   1.385       .  S
C1871      F1880   1.383       .  S
C1871      F1881   1.384       .  S
C1885      C1886   1.401       .  A
C1885      C1890   1.407       .  A
C1885      H1895   1.083       .  S
C1886      C1891   1.488       .  S
C1886      C1887   1.415       .  A
C1887      C1888   1.408       .  A
C1887      C1892   1.518       .  S
C1888      C1889   1.407       .  A
C1888      H1893   1.083       .  S
C1889      C1890   1.423       .  A
C1890      C1894   1.521       .  S
C1891      C1896   1.414       .  A
C1891      C1900   1.401       .  A
C1892      F1908   1.382       .  S
C1892      F1909   1.382       .  S
C1892      F1910   1.385       .  S
C1894      F1905   1.382       .  S
C1894      F1906   1.385       .  S
C1894      F1907   1.383       .  S
C1896      C1897   1.406       .  A
C1896      C1901   1.522       .  S
C1897      C1898   1.407       .  A
C1897      H1902   1.075       .  S
C1898      C1899   1.426       .  A
C1899      C1900   1.412       .  A
C1899      C1903   1.520       .  S
C1900      H1904   1.083       .  S
C1901      F1914   1.383       .  S
C1901      F1915   1.381       .  S
C1901      F1916   1.382       .  S
C1903      F1911   1.385       .  S
C1903      F1912   1.382       .  S
C1903      F1913   1.382       .  S
C1917      C1918   1.402       .  A
C1917      C1922   1.408       .  A
C1917      H1927   1.083       .  S
C1918      C1923   1.483       .  S
C1918      C1919   1.416       .  A
C1919      C1920   1.405       .  A
C1919      C1924   1.521       .  S
C1920      C1921   1.403       .  A
C1920      H1925   1.083       .  S
C1921      C1922   1.418       .  A
C1922      C1926   1.518       .  S
C1923      C1928   1.416       .  A
C1923      C1932   1.400       .  A
C1924      F1940   1.382       .  S
C1924      F1941   1.383       .  S
C1924      F1942   1.384       .  S
C1926      F1937   1.384       .  S
C1926      F1938   1.384       .  S
C1926      F1939   1.382       .  S
C1928      C1929   1.405       .  A
C1928      C1933   1.520       .  S
C1929      C1930   1.405       .  A
C1929      H1934   1.083       .  S
C1930      C1931   1.422       .  A
C1931      C1932   1.406       .  A
C1931      C1935   1.520       .  S
C1932      H1936   1.083       .  S
C1933      F1946   1.385       .  S
C1933      F1947   1.382       .  S
C1933      F1948   1.383       .  S
C1935      F1943   1.385       .  S
C1935      F1944   1.383       .  S
C1935      F1945   1.384       .  S
C1949      C1950   1.400       .  A
C1949      C1954   1.403       .  A
C1949      H1959   1.083       .  S
C1950      C1955   1.477       .  S
C1950      C1951   1.414       .  A
C1951      C1952   1.405       .  A
C1951      C1956   1.520   1_565  S
C1952      C1953   1.403       .  A
C1952      H1957   1.083       .  S
C1953      C1954   1.417       .  A
C1954      C1958   1.519       .  S
C1955      C1960   1.411   1_565  A
C1955      C1964   1.399   1_565  A
C1956      F1972   1.382       .  S
C1956      F1973   1.382       .  S
C1956      F1974   1.385   1_545  S
C1958      F1969   1.383       .  S
C1958      F1970   1.385       .  S
C1958      F1971   1.382       .  S
C1960      C1961   1.401       .  A
C1960      C1965   1.523       .  S
C1961      C1962   1.406       .  A
C1961      H1966   1.077       .  S
C1962      C1963   1.427       .  A
C1963      C1964   1.410       .  A
C1963      C1967   1.520       .  S
C1964      H1968   1.083   1_545  S
C1965      F1978   1.383       .  S
C1965      F1979   1.383   1_545  S
C1965      F1980   1.382   1_545  S
C1967      F1975   1.385       .  S
C1967      F1976   1.383       .  S
C1967      F1977   1.382       .  S
C1981      C1982   1.401       .  A
C1981      C1986   1.412       .  A
C1981      H1991   1.083       .  S
C1982      C1987   1.498       .  S
C1982      C1983   1.417       .  A
C1983      C1984   1.413       .  A
C1983      C1988   1.518       .  S
C1984      C1985   1.406       .  A
C1984      H1989   1.083       .  S
C1985      C1986   1.424       .  A
C1986      C1990   1.517       .  S
C1987      C1992   1.417   1_655  A
C1987      C1996   1.406       .  A
C1988      F2004   1.383       .  S
C1988      F2005   1.382   1_655  S
C1988      F2006   1.384       .  S
C1990      F2001   1.384       .  S
C1990      F2002   1.383       .  S
C1990      F2003   1.384       .  S
C1992      C1993   1.409       .  A
C1992      C1997   1.520       .  S
C1993      C1994   1.405       .  A
C1993      H1998   1.083       .  S
C1994      C1995   1.420   1_455  A
C1995      C1996   1.416       .  A
C1995      C1999   1.518       .  S
C1996      H2000   1.083       .  S
C1997      F2010   1.384       .  S
C1997      F2011   1.382       .  S
C1997      F2012   1.382       .  S
C1999      F2007   1.382       .  S
C1999      F2008   1.384       .  S
C1999      F2009   1.384       .  S
C2013      C2014   1.402       .  A
C2013      C2018   1.404       .  A
C2013      H2023   1.083       .  S
C2014      C2019   1.478       .  S
C2014      C2015   1.415       .  A
C2015      C2016   1.405       .  A
C2015      C2020   1.520       .  S
C2016      C2017   1.402       .  A
C2016      H2021   1.083       .  S
C2017      C2018   1.415       .  A
C2018      C2022   1.519       .  S
C2019      C2024   1.413       .  A
C2019      C2028   1.399       .  A
C2020      F2036   1.382       .  S
C2020      F2037   1.382       .  S
C2020      F2038   1.384       .  S
C2022      F2033   1.385       .  S
C2022      F2034   1.382       .  S
C2022      F2035   1.384       .  S
C2024      C2025   1.407       .  A
C2024      C2029   1.520       .  S
C2025      C2026   1.408       .  A
C2025      H2030   1.083       .  S
C2026      C2027   1.422       .  A
C2027      C2028   1.402       .  A
C2027      C2031   1.521       .  S
C2028      H2032   1.084       .  S
C2029      F2042   1.384       .  S
C2029      F2043   1.382       .  S
C2029      F2044   1.382       .  S
C2031      F2039   1.383       .  S
C2031      F2040   1.382       .  S
C2031      F2041   1.384       .  S
C2045      C2046   1.403       .  A
C2045      C2050   1.410       .  A
C2045      H2055   1.083       .  S
C2046      C2051   1.492       .  S
C2046      C2047   1.418       .  A
C2047      C2048   1.409       .  A
C2047      C2052   1.519       .  S
C2048      C2049   1.402       .  A
C2048      H2053   1.083       .  S
C2049      C2050   1.418       .  A
C2050      C2054   1.518       .  S
C2051      C2056   1.415       .  A
C2051      C2060   1.402       .  A
C2052      F2068   1.382       .  S
C2052      F2069   1.382       .  S
C2052      F2070   1.385       .  S
C2054      F2065   1.385       .  S
C2054      F2066   1.381       .  S
C2054      F2067   1.384       .  S
C2056      C2057   1.409       .  A
C2056      C2061   1.521       .  S
C2057      C2058   1.409       .  A
C2057      H2062   1.083       .  S
C2058      C2059   1.424       .  A
C2059      C2060   1.412       .  A
C2059      C2063   1.518       .  S
C2060      H2064   1.083       .  S
C2061      F2074   1.384       .  S
C2061      F2075   1.382       .  S
C2061      F2076   1.383       .  S
C2063      F2071   1.382       .  S
C2063      F2072   1.383       .  S
C2063      F2073   1.385       .  S
C2077      C2078   1.402       .  A
C2077      C2082   1.404       .  A
C2077      H2087   1.084       .  S
C2078      C2083   1.482       .  S
C2078      C2079   1.416       .  A
C2079      C2080   1.407       .  A
C2079      C2084   1.519       .  S
C2080      C2081   1.404       .  A
C2080      H2085   1.083       .  S
C2081      C2082   1.418       .  A
C2082      C2086   1.520       .  S
C2083      C2088   1.416       .  A
C2083      C2092   1.400       .  A
C2084      F2100   1.382       .  S
C2084      F2101   1.381       .  S
C2084      F2102   1.385       .  S
C2086      F2097   1.383       .  S
C2086      F2098   1.385       .  S
C2086      F2099   1.383       .  S
C2088      C2089   1.410       .  A
C2088      C2093   1.520       .  S
C2089      C2090   1.405       .  A
C2089      H2094   1.083       .  S
C2090      C2091   1.422       .  A
C2091      C2092   1.404       .  A
C2091      C2095   1.521       .  S
C2092      H2096   1.084       .  S
C2093      F2106   1.384       .  S
C2093      F2107   1.382       .  S
C2093      F2108   1.381       .  S
C2095      F2103   1.383       .  S
C2095      F2104   1.383       .  S
C2095      F2105   1.385       .  S
C2109      C2110   1.397       .  A
C2109      C2114   1.403       .  A
C2109      H2119   1.083       .  S
C2110      C2115   1.478       .  S
C2110      C2111   1.414       .  A
C2111      C2112   1.408       .  A
C2111      C2116   1.518       .  S
C2112      C2113   1.404       .  A
C2112      H2117   1.083       .  S
C2113      C2114   1.423       .  A
C2114      C2118   1.521       .  S
C2115      C2120   1.414       .  A
C2115      C2124   1.398       .  A
C2116      F2132   1.382       .  S
C2116      F2133   1.382       .  S
C2116      F2134   1.379       .  S
C2118      F2129   1.384       .  S
C2118      F2130   1.383       .  S
C2118      F2131   1.380       .  S
C2120      C2121   1.407       .  A
C2120      C2125   1.519       .  S
C2121      C2122   1.405       .  A
C2121      H2126   1.083       .  S
C2122      C2123   1.420       .  A
C2123      C2124   1.403       .  A
C2123      C2127   1.520   1_565  S
C2124      H2128   1.083       .  S
C2125      F2138   1.384       .  S
C2125      F2139   1.383       .  S
C2125      F2140   1.382       .  S
C2127      F2135   1.381       .  S
C2127      F2136   1.383       .  S
C2127      F2137   1.385   1_545  S
C2141      C2142   1.402       .  A
C2141      C2146   1.410   1_455  A
C2141      H2151   1.083       .  S
C2142      C2147   1.489       .  S
C2142      C2143   1.414   1_545  A
C2143      C2144   1.407       .  A
C2143      C2148   1.518       .  S
C2144      C2145   1.408   1_455  A
C2144      H2149   1.083       .  S
C2145      C2146   1.425   1_565  A
C2146      C2150   1.521       .  S
C2147      C2152   1.415       .  A
C2147      C2156   1.404       .  A
C2148      F2164   1.382       .  S
C2148      F2165   1.382       .  S
C2148      F2166   1.385       .  S
C2150      F2161   1.382       .  S
C2150      F2162   1.385       .  S
C2150      F2163   1.383   1_545  S
C2152      C2153   1.404       .  A
C2152      C2157   1.520       .  S
C2153      C2154   1.405       .  A
C2153      H2158   1.083       .  S
C2154      C2155   1.421       .  A
C2155      C2156   1.413       .  A
C2155      C2159   1.519   1_545  S
C2156      H2160   1.083   1_545  S
C2157      F2170   1.384       .  S
C2157      F2171   1.382       .  S
C2157      F2172   1.383       .  S
C2159      F2167   1.384       .  S
C2159      F2168   1.383   1_565  S
C2159      F2169   1.383       .  S
C2173      C2174   1.400       .  A
C2173      C2178   1.406       .  A
C2173      H2183   1.083       .  S
C2174      C2179   1.485       .  S
C2174      C2175   1.416       .  A
C2175      C2176   1.406       .  A
C2175      C2180   1.519       .  S
C2176      C2177   1.405       .  A
C2176      H2181   1.083       .  S
C2177      C2178   1.422       .  A
C2178      C2182   1.522       .  S
C2179      C2184   1.416       .  A
C2179      C2188   1.403       .  A
C2180      F2196   1.382       .  S
C2180      F2197   1.382       .  S
C2180      F2198   1.385       .  S
C2182      F2193   1.384       .  S
C2182      F2194   1.382       .  S
C2182      F2195   1.384       .  S
C2184      C2185   1.406       .  A
C2184      C2189   1.520       .  S
C2185      C2186   1.404       .  A
C2185      H2190   1.083       .  S
C2186      C2187   1.417       .  A
C2187      C2188   1.409       .  A
C2187      C2191   1.517       .  S
C2188      H2192   1.083       .  S
C2189      F2202   1.384       .  S
C2189      F2203   1.382       .  S
C2189      F2204   1.382       .  S
C2191      F2199   1.383       .  S
C2191      F2200   1.383       .  S
C2191      F2201   1.385       .  S
C2205      C2206   1.401   1_545  A
C2205      C2210   1.407       .  A
C2205      H2215   1.083   1_545  S
C2206      C2211   1.477       .  S
C2206      C2207   1.414   1_565  A
C2207      C2208   1.402       .  A
C2207      C2212   1.521       .  S
C2208      C2209   1.405       .  A
C2208      H2213   1.084       .  S
C2209      C2210   1.419       .  A
C2210      C2214   1.519       .  S
C2211      C2216   1.415       .  A
C2211      C2220   1.401       .  A
C2212      F2228   1.382       .  S
C2212      F2229   1.383   1_545  S
C2212      F2230   1.385       .  S
C2214      F2225   1.384       .  S
C2214      F2226   1.383       .  S
C2214      F2227   1.384       .  S
C2216      C2217   1.403       .  A
C2216      C2221   1.520       .  S
C2217      C2218   1.402       .  A
C2217      H2222   1.083       .  S
C2218      C2219   1.417       .  A
C2219      C2220   1.405       .  A
C2219      C2223   1.518       .  S
C2220      H2224   1.083       .  S
C2221      F2234   1.385       .  S
C2221      F2235   1.382       .  S
C2221      F2236   1.382       .  S
C2223      F2231   1.382       .  S
C2223      F2232   1.383       .  S
C2223      F2233   1.385       .  S
C2237      C2238   1.401       .  A
C2237      C2242   1.404       .  A
C2237      H2247   1.083       .  S
C2238      C2243   1.481       .  S
C2238      C2239   1.416       .  A
C2239      C2240   1.406       .  A
C2239      C2244   1.519       .  S
C2240      C2241   1.402       .  A
C2240      H2245   1.083       .  S
C2241      C2242   1.414       .  A
C2242      C2246   1.517       .  S
C2243      C2248   1.414       .  A
C2243      C2252   1.398       .  A
C2244      F2260   1.382       .  S
C2244      F2261   1.382       .  S
C2244      F2262   1.385       .  S
C2246      F2257   1.385       .  S
C2246      F2258   1.382       .  S
C2246      F2259   1.383       .  S
C2248      C2249   1.404       .  A
C2248      C2253   1.521       .  S
C2249      C2250   1.408       .  A
C2249      H2254   1.083       .  S
C2250      C2251   1.427       .  A
C2251      C2252   1.407       .  A
C2251      C2255   1.520       .  S
C2252      H2256   1.083       .  S
C2253      F2266   1.384       .  S
C2253      F2267   1.382       .  S
C2253      F2268   1.383       .  S
C2255      F2263   1.382       .  S
C2255      F2264   1.381       .  S
C2255      F2265   1.385       .  S
C2269      C2270   1.400       .  A
C2269      C2274   1.407       .  A
C2269      H2279   1.083       .  S
C2270      C2275   1.480       .  S
C2270      C2271   1.414       .  A
C2271      C2272   1.404       .  A
C2271      C2276   1.521       .  S
C2272      C2273   1.404       .  A
C2272      H2277   1.079       .  S
C2273      C2274   1.421       .  A
C2274      C2278   1.520       .  S
C2275      C2280   1.414       .  A
C2275      C2284   1.402   1_655  A
C2276      F2292   1.382       .  S
C2276      F2293   1.382       .  S
C2276      F2294   1.385       .  S
C2278      F2289   1.385       .  S
C2278      F2290   1.382   1_655  S
C2278      F2291   1.381       .  S
C2280      C2281   1.403       .  A
C2280      C2285   1.520       .  S
C2281      C2282   1.403       .  A
C2281      H2286   1.083       .  S
C2282      C2283   1.418   1_655  A
C2283      C2284   1.408       .  A
C2283      C2287   1.519       .  S
C2284      H2288   1.083       .  S
C2285      F2298   1.385       .  S
C2285      F2299   1.382       .  S
C2285      F2300   1.382       .  S
C2287      F2295   1.385       .  S
C2287      F2296   1.383       .  S
C2287      F2297   1.383       .  S
C2301      C2302   1.400       .  A
C2301      C2306   1.404       .  A
C2301      H2311   1.084       .  S
C2302      C2307   1.481       .  S
C2302      C2303   1.415       .  A
C2303      C2304   1.408       .  A
C2303      C2308   1.519       .  S
C2304      C2305   1.404       .  A
C2304      H2309   1.083       .  S
C2305      C2306   1.420       .  A
C2306      C2310   1.521       .  S
C2307      C2312   1.414       .  A
C2307      C2316   1.401       .  A
C2308      F2324   1.382       .  S
C2308      F2325   1.382       .  S
C2308      F2326   1.384       .  S
C2310      F2321   1.384       .  S
C2310      F2322   1.383       .  S
C2310      F2323   1.384       .  S
C2312      C2313   1.406       .  A
C2312      C2317   1.519       .  S
C2313      C2314   1.405       .  A
C2313      H2318   1.083       .  S
C2314      C2315   1.421       .  A
C2315      C2316   1.405       .  A
C2315      C2319   1.521       .  S
C2316      H2320   1.083       .  S
C2317      F2330   1.385       .  S
C2317      F2331   1.382       .  S
C2317      F2332   1.381       .  S
C2319      F2327   1.382       .  S
C2319      F2328   1.383       .  S
C2319      F2329   1.385       .  S
C2333      C2334   1.399       .  A
C2333      C2338   1.405       .  A
C2333      H2343   1.083       .  S
C2334      C2339   1.476       .  S
C2334      C2335   1.413       .  A
C2335      C2336   1.403       .  A
C2335      C2340   1.521       .  S
C2336      C2337   1.405       .  A
C2336      H2341   1.083       .  S
C2337      C2338   1.420       .  A
C2338      C2342   1.519       .  S
C2339      C2344   1.412       .  A
C2339      C2348   1.398       .  A
C2340      F2356   1.383       .  S
C2340      F2357   1.383       .  S
C2340      F2358   1.384       .  S
C2342      F2353   1.385       .  S
C2342      F2354   1.384       .  S
C2342      F2355   1.382       .  S
C2344      C2345   1.402       .  A
C2344      C2349   1.519       .  S
C2345      C2346   1.406       .  A
C2345      H2350   1.080       .  S
C2346      C2347   1.425       .  A
C2347      C2348   1.403       .  A
C2347      C2351   1.522       .  S
C2348      H2352   1.083       .  S
C2349      F2362   1.384   1_554  S
C2349      F2363   1.382       .  S
C2349      F2364   1.382   1_554  S
C2351      F2359   1.383       .  S
C2351      F2360   1.382       .  S
C2351      F2361   1.385       .  S
C2365      C2366   1.403       .  A
C2365      C2370   1.405       .  A
C2365      H2375   1.083       .  S
C2366      C2371   1.486       .  S
C2366      C2367   1.418       .  A
C2367      C2368   1.407       .  A
C2367      C2372   1.519       .  S
C2368      C2369   1.401       .  A
C2368      H2373   1.083       .  S
C2369      C2370   1.414       .  A
C2370      C2374   1.518       .  S
C2371      C2376   1.413       .  A
C2371      C2380   1.399       .  A
C2372      F2388   1.382       .  S
C2372      F2389   1.382       .  S
C2372      F2390   1.385       .  S
C2374      F2385   1.385       .  S
C2374      F2386   1.382       .  S
C2374      F2387   1.383       .  S
C2376      C2377   1.408       .  A
C2376      C2381   1.519       .  S
C2377      C2378   1.408       .  A
C2377      H2382   1.082       .  S
C2378      C2379   1.429       .  A
C2379      C2380   1.408       .  A
C2379      C2383   1.522       .  S
C2380      H2384   1.083       .  S
C2381      F2394   1.384       .  S
C2381      F2395   1.382       .  S
C2381      F2396   1.382       .  S
C2383      F2391   1.382       .  S
C2383      F2392   1.382       .  S
C2383      F2393   1.386       .  S
C2397      C2398   1.401       .  A
C2397      C2402   1.405       .  A
C2397      H2407   1.083       .  S
C2398      C2403   1.484       .  S
C2398      C2399   1.416       .  A
C2399      C2400   1.406       .  A
C2399      C2404   1.518       .  S
C2400      C2401   1.403       .  A
C2400      H2405   1.083       .  S
C2401      C2402   1.416       .  A
C2402      C2406   1.518   1_556  S
C2403      C2408   1.413       .  A
C2403      C2412   1.397       .  A
C2404      F2420   1.382       .  S
C2404      F2421   1.382       .  S
C2404      F2422   1.385       .  S
C2406      F2417   1.380       .  S
C2406      F2418   1.385   1_554  S
C2406      F2419   1.383       .  S
C2408      C2409   1.407       .  A
C2408      C2413   1.521       .  S
C2409      C2410   1.409       .  A
C2409      H2414   1.080       .  S
C2410      C2411   1.429       .  A
C2411      C2412   1.410       .  A
C2411      C2415   1.520       .  S
C2412      H2416   1.083       .  S
C2413      F2426   1.384       .  S
C2413      F2427   1.383       .  S
C2413      F2428   1.383       .  S
C2415      F2423   1.384       .  S
C2415      F2424   1.382       .  S
C2415      F2425   1.381       .  S
C2429      C2430   1.398       .  A
C2429      C2434   1.405       .  A
C2429      H2439   1.083       .  S
C2430      C2435   1.477       .  S
C2430      C2431   1.414       .  A
C2431      C2432   1.405       .  A
C2431      C2436   1.521       .  S
C2432      C2433   1.406       .  A
C2432      H2437   1.082       .  S
C2433      C2434   1.421       .  A
C2434      C2438   1.519       .  S
C2435      C2440   1.416       .  A
C2435      C2444   1.400       .  A
C2436      F2452   1.382       .  S
C2436      F2453   1.383       .  S
C2436      F2454   1.384       .  S
C2438      F2449   1.385       .  S
C2438      F2450   1.382       .  S
C2438      F2451   1.384       .  S
C2440      C2441   1.404       .  A
C2440      C2445   1.519   1_554  S
C2441      C2442   1.403       .  A
C2441      H2446   1.084       .  S
C2442      C2443   1.414       .  A
C2443      C2444   1.402       .  A
C2443      C2447   1.515       .  S
C2444      H2448   1.083       .  S
C2445      F2458   1.385       .  S
C2445      F2459   1.382       .  S
C2445      F2460   1.382       .  S
C2447      F2455   1.383       .  S
C2447      F2456   1.384       .  S
C2447      F2457   1.383       .  S
C2461      C2462   1.402   1_655  A
C2461      C2466   1.409       .  A
C2461      H2471   1.083       .  S
C2462      C2467   1.489       .  S
C2462      C2463   1.419       .  A
C2463      C2464   1.410       .  A
C2463      C2468   1.521       .  S
C2464      C2465   1.403   1_455  A
C2464      H2469   1.083       .  S
C2465      C2466   1.417       .  A
C2466      C2470   1.518       .  S
C2467      C2472   1.412       .  A
C2467      C2476   1.399       .  A
C2468      F2484   1.382       .  S
C2468      F2485   1.383       .  S
C2468      F2486   1.384       .  S
C2470      F2481   1.383       .  S
C2470      F2482   1.384       .  S
C2470      F2483   1.383       .  S
C2472      C2473   1.409       .  A
C2472      C2477   1.519       .  S
C2473      C2474   1.414       .  A
C2473      H2478   1.082       .  S
C2474      C2475   1.431       .  A
C2475      C2476   1.408       .  A
C2475      C2479   1.524       .  S
C2476      H2480   1.083       .  S
C2477      F2490   1.385       .  S
C2477      F2491   1.382       .  S
C2477      F2492   1.382       .  S
C2479      F2487   1.385       .  S
C2479      F2488   1.384       .  S
C2479      F2489   1.384       .  S
C2493      C2494   1.404       .  A
C2493      C2498   1.409       .  A
C2493      H2503   1.083       .  S
C2494      C2499   1.488       .  S
C2494      C2495   1.417       .  A
C2495      C2496   1.406       .  A
C2495      C2500   1.519       .  S
C2496      C2497   1.402       .  A
C2496      H2501   1.084       .  S
C2497      C2498   1.416       .  A
C2498      C2502   1.517       .  S
C2499      C2504   1.415       .  A
C2499      C2508   1.401       .  A
C2500      F2516   1.382       .  S
C2500      F2517   1.383       .  S
C2500      F2518   1.385       .  S
C2502      F2513   1.385       .  S
C2502      F2514   1.382       .  S
C2502      F2515   1.383       .  S
C2504      C2505   1.408       .  A
C2504      C2509   1.519       .  S
C2505      C2506   1.408       .  A
C2505      H2510   1.083       .  S
C2506      C2507   1.424       .  A
C2507      C2508   1.408       .  A
C2507      C2511   1.520   1_655  S
C2508      H2512   1.083       .  S
C2509      F2522   1.385       .  S
C2509      F2523   1.382       .  S
C2509      F2524   1.383       .  S
C2511      F2519   1.385       .  S
C2511      F2520   1.382       .  S
C2511      F2521   1.384       .  S
C2525      C2526   1.397       .  A
C2525      C2530   1.407       .  A
C2525      H2535   1.083       .  S
C2526      C2531   1.487       .  S
C2526      C2527   1.412       .  A
C2527      C2528   1.409       .  A
C2527      C2532   1.520       .  S
C2528      C2529   1.413       .  A
C2528      H2533   1.081       .  S
C2529      C2530   1.433       .  A
C2530      C2534   1.524       .  S
C2531      C2536   1.418       .  A
C2531      C2540   1.403       .  A
C2532      F2548   1.382       .  S
C2532      F2549   1.383       .  S
C2532      F2550   1.384       .  S
C2534      F2545   1.384       .  S
C2534      F2546   1.385       .  S
C2534      F2547   1.380       .  S
C2536      C2537   1.406       .  A
C2536      C2541   1.520       .  S
C2537      C2538   1.402       .  A
C2537      H2542   1.083       .  S
C2538      C2539   1.415       .  A
C2539      C2540   1.407       .  A
C2539      C2543   1.518       .  S
C2540      H2544   1.083       .  S
C2541      F2554   1.385       .  S
C2541      F2555   1.382       .  S
C2541      F2556   1.382       .  S
C2543      F2551   1.383       .  S
C2543      F2552   1.383       .  S
C2543      F2553   1.384       .  S
C2557      C2558   1.399       .  A
C2557      C2562   1.404       .  A
C2557      H2567   1.084       .  S
C2558      C2563   1.484       .  S
C2558      C2559   1.416       .  A
C2559      C2560   1.412       .  A
C2559      C2564   1.519       .  S
C2560      C2561   1.405       .  A
C2560      H2565   1.083       .  S
C2561      C2562   1.419       .  A
C2562      C2566   1.519       .  S
C2563      C2568   1.414       .  A
C2563      C2572   1.399       .  A
C2564      F2580   1.383       .  S
C2564      F2581   1.382       .  S
C2564      F2582   1.384       .  S
C2566      F2577   1.382       .  S
C2566      F2578   1.385       .  S
C2566      F2579   1.383       .  S
C2568      C2569   1.405       .  A
C2568      C2573   1.520       .  S
C2569      C2570   1.406       .  A
C2569      H2574   1.081       .  S
C2570      C2571   1.425       .  A
C2571      C2572   1.409       .  A
C2571      C2575   1.518       .  S
C2572      H2576   1.083       .  S
C2573      F2586   1.383       .  S
C2573      F2587   1.382       .  S
C2573      F2588   1.382       .  S
C2575      F2583   1.384       .  S
C2575      F2584   1.383       .  S
C2575      F2585   1.382       .  S
C2589      C2590   1.398       .  A
C2589      C2594   1.405       .  A
C2589      H2599   1.083       .  S
C2590      C2595   1.485       .  S
C2590      C2591   1.415       .  A
C2591      C2592   1.409       .  A
C2591      C2596   1.519       .  S
C2592      C2593   1.408       .  A
C2592      H2597   1.083       .  S
C2593      C2594   1.427       .  A
C2594      C2598   1.522       .  S
C2595      C2600   1.419       .  A
C2595      C2604   1.403       .  A
C2596      F2612   1.382       .  S
C2596      F2613   1.382       .  S
C2596      F2614   1.385       .  S
C2598      F2609   1.385       .  S
C2598      F2610   1.382       .  S
C2598      F2611   1.383       .  S
C2600      C2601   1.406       .  A
C2600      C2605   1.519       .  S
C2601      C2602   1.399       .  A
C2601      H2606   1.084       .  S
C2602      C2603   1.412       .  A
C2603      C2604   1.405       .  A
C2603      C2607   1.516       .  S
C2604      H2608   1.083       .  S
C2605      F2618   1.385       .  S
C2605      F2619   1.382       .  S
C2605      F2620   1.382       .  S
C2607      F2615   1.379       .  S
C2607      F2616   1.383       .  S
C2607      F2617   1.384       .  S
C2621      C2622   1.400       .  A
C2621      C2626   1.408       .  A
C2621      H2631   1.083       .  S
C2622      C2627   1.476       .  S
C2622      C2623   1.412       .  A
C2623      C2624   1.402       .  A
C2623      C2628   1.522       .  S
C2624      C2625   1.408       .  A
C2624      H2629   1.083       .  S
C2625      C2626   1.423       .  A
C2626      C2630   1.519       .  S
C2627      C2632   1.413       .  A
C2627      C2636   1.401       .  A
C2628      F2644   1.382       .  S
C2628      F2645   1.382       .  S
C2628      F2646   1.384       .  S
C2630      F2641   1.385       .  S
C2630      F2642   1.383       .  S
C2630      F2643   1.383       .  S
C2632      C2633   1.401       .  A
C2632      C2637   1.520       .  S
C2633      C2634   1.404       .  A
C2633      H2638   1.084       .  S
C2634      C2635   1.419       .  A
C2635      C2636   1.405       .  A
C2635      C2639   1.519       .  S
C2636      H2640   1.083       .  S
C2637      F2650   1.385       .  S
C2637      F2651   1.382       .  S
C2637      F2652   1.381       .  S
C2639      F2647   1.382       .  S
C2639      F2648   1.382       .  S
C2639      F2649   1.385       .  S
C2653      C2654   1.402       .  A
C2653      C2658   1.405       .  A
C2653      H2663   1.083       .  S
C2654      C2659   1.483       .  S
C2654      C2655   1.417       .  A
C2655      C2656   1.406       .  A
C2655      C2660   1.519       .  S
C2656      C2657   1.401       .  A
C2656      H2661   1.083       .  S
C2657      C2658   1.415       .  A
C2658      C2662   1.517       .  S
C2659      C2664   1.413       .  A
C2659      C2668   1.395       .  A
C2660      F2676   1.382       .  S
C2660      F2677   1.383       .  S
C2660      F2678   1.384       .  S
C2662      F2673   1.382       .  S
C2662      F2674   1.385       .  S
C2662      F2675   1.384       .  S
C2664      C2665   1.408       .  A
C2664      C2669   1.522       .  S
C2665      C2666   1.412       .  A
C2665      H2670   1.081       .  S
C2666      C2667   1.434       .  A
C2667      C2668   1.408       .  A
C2667      C2671   1.523       .  S
C2668      H2672   1.083       .  S
C2669      F2682   1.384       .  S
C2669      F2683   1.382       .  S
C2669      F2684   1.383       .  S
C2671      F2679   1.384       .  S
C2671      F2680   1.383       .  S
C2671      F2681   1.384       .  S
C2685      C2686   1.402       .  A
C2685      C2690   1.408       .  A
C2685      H2695   1.083       .  S
C2686      C2691   1.482       .  S
C2686      C2687   1.416       .  A
C2687      C2688   1.405       .  A
C2687      C2692   1.521       .  S
C2688      C2689   1.403       .  A
C2688      H2693   1.083       .  S
C2689      C2690   1.417       .  A
C2690      C2694   1.518       .  S
C2691      C2696   1.415       .  A
C2691      C2700   1.399   1_565  A
C2692      F2708   1.382   1_565  S
C2692      F2709   1.382       .  S
C2692      F2710   1.384       .  S
C2694      F2705   1.385       .  S
C2694      F2706   1.382       .  S
C2694      F2707   1.383       .  S
C2696      C2697   1.405   1_565  A
C2696      C2701   1.519       .  S
C2697      C2698   1.406       .  A
C2697      H2702   1.083       .  S
C2698      C2699   1.424       .  A
C2699      C2700   1.405       .  A
C2699      C2703   1.522       .  S
C2700      H2704   1.083       .  S
C2701      F2714   1.385       .  S
C2701      F2715   1.382       .  S
C2701      F2716   1.382       .  S
C2703      F2711   1.385       .  S
C2703      F2712   1.382       .  S
C2703      F2713   1.384       .  S
C2717      C2718   1.399       .  A
C2717      C2722   1.407       .  A
C2717      H2727   1.083       .  S
C2718      C2723   1.485       .  S
C2718      C2719   1.416       .  A
C2719      C2720   1.407       .  A
C2719      C2724   1.520       .  S
C2720      C2721   1.406       .  A
C2720      H2725   1.083       .  S
C2721      C2722   1.425       .  A
C2722      C2726   1.521       .  S
C2723      C2728   1.416       .  A
C2723      C2732   1.399   1_655  A
C2724      F2740   1.382       .  S
C2724      F2741   1.382       .  S
C2724      F2742   1.385       .  S
C2726      F2737   1.383       .  S
C2726      F2738   1.385       .  S
C2726      F2739   1.384       .  S
C2728      C2729   1.408   1_655  A
C2728      C2733   1.519       .  S
C2729      C2730   1.405       .  A
C2729      H2734   1.083       .  S
C2730      C2731   1.425       .  A
C2731      C2732   1.405       .  A
C2731      C2735   1.523       .  S
C2732      H2736   1.083       .  S
C2733      F2746   1.385       .  S
C2733      F2747   1.382       .  S
C2733      F2748   1.383       .  S
C2735      F2743   1.381       .  S
C2735      F2744   1.381       .  S
C2735      F2745   1.385       .  S
C2749      C2750   1.403       .  A
C2749      C2754   1.410       .  A
C2749      H2759   1.083   1_545  S
C2750      C2755   1.488       .  S
C2750      C2751   1.416       .  A
C2751      C2752   1.408       .  A
C2751      C2756   1.520       .  S
C2752      C2753   1.403       .  A
C2752      H2757   1.083       .  S
C2753      C2754   1.418       .  A
C2754      C2758   1.518       .  S
C2755      C2760   1.415       .  A
C2755      C2764   1.399   1_545  A
C2756      F2772   1.382       .  S
C2756      F2773   1.382       .  S
C2756      F2774   1.384       .  S
C2758      F2769   1.383       .  S
C2758      F2770   1.385   1_545  S
C2758      F2771   1.383   1_545  S
C2760      C2761   1.409   1_545  A
C2760      C2765   1.520       .  S
C2761      C2762   1.409       .  A
C2761      H2766   1.083   1_565  S
C2762      C2763   1.425       .  A
C2763      C2764   1.409       .  A
C2763      C2767   1.520       .  S
C2764      H2768   1.083       .  S
C2765      F2778   1.383       .  S
C2765      F2779   1.383       .  S
C2765      F2780   1.383       .  S
C2767      F2775   1.384       .  S
C2767      F2776   1.383       .  S
C2767      F2777   1.382       .  S
C2781      C2782   1.399       .  A
C2781      C2786   1.405       .  A
C2781      H2791   1.083       .  S
C2782      C2787   1.474       .  S
C2782      C2783   1.412       .  A
C2783      C2784   1.403       .  A
C2783      C2788   1.521       .  S
C2784      C2785   1.407       .  A
C2784      H2789   1.083       .  S
C2785      C2786   1.422       .  A
C2786      C2790   1.520       .  S
C2787      C2792   1.415       .  A
C2787      C2796   1.398       .  A
C2788      F2804   1.383       .  S
C2788      F2805   1.382       .  S
C2788      F2806   1.384       .  S
C2790      F2801   1.385       .  S
C2790      F2802   1.383       .  S
C2790      F2803   1.383   1_565  S
C2792      C2793   1.403       .  A
C2792      C2797   1.519       .  S
C2793      C2794   1.402       .  A
C2793      H2798   1.084       .  S
C2794      C2795   1.415       .  A
C2795      C2796   1.400       .  A
C2795      C2799   1.513       .  S
C2796      H2800   1.083       .  S
C2797      F2810   1.385       .  S
C2797      F2811   1.382       .  S
C2797      F2812   1.382       .  S
C2799      F2807   1.381       .  S
C2799      F2808   1.384       .  S
C2799      F2809   1.384       .  S
C2813      C2814   1.404       .  A
C2813      C2818   1.409       .  A
C2813      H2823   1.083       .  S
C2814      C2819   1.490       .  S
C2814      C2815   1.419       .  A
C2815      C2816   1.408       .  A
C2815      C2820   1.520       .  S
C2816      C2817   1.402       .  A
C2816      H2821   1.083       .  S
C2817      C2818   1.414       .  A
C2818      C2822   1.517       .  S
C2819      C2824   1.412       .  A
C2819      C2828   1.398       .  A
C2820      F2836   1.381       .  S
C2820      F2837   1.382       .  S
C2820      F2838   1.385       .  S
C2822      F2833   1.384       .  S
C2822      F2834   1.383       .  S
C2822      F2835   1.383       .  S
C2824      C2825   1.411       .  A
C2824      C2829   1.519       .  S
C2825      C2826   1.415       .  A
C2825      H2830   1.082       .  S
C2826      C2827   1.434       .  A
C2827      C2828   1.409       .  A
C2827      C2831   1.524       .  S
C2828      H2832   1.083       .  S
C2829      F2842   1.385       .  S
C2829      F2843   1.382       .  S
C2829      F2844   1.382       .  S
C2831      F2839   1.382       .  S
C2831      F2840   1.384       .  S
C2831      F2841   1.385       .  S
