geometry optimzed in LAMMPS
_audit_creation_date              2020-11-30 
_audit_creation_method            'lammps2cif' 
_symmetry_space_group_name_H-M    'P1' 
_symmetry_Int_Tables_number       1 
_symmetry_cell_setting            triclinic 
loop_ 
_symmetry_equiv_pos_as_xyz 
  x,y,z 
_cell_length_a                    35.9207316490867 
_cell_length_b                    35.94324612152944 
_cell_length_c                    27.20598571691919 
_cell_angle_alpha                 87.70108787787849 
_cell_angle_beta                  92.3810551481972 
_cell_angle_gamma                 115.86970217078341 
loop_ 
_atom_site_label 
_atom_site_type_symbol 
_atom_site_fract_x 
_atom_site_fract_y 
_atom_site_fract_z 
_atom_site_charge 
O1          O  0.18371233  0.50741645  0.07272672    -0.80660
O2          O  0.31339036  0.46604183  0.00378317    -0.65350
O3          O  0.25848353  0.02897852  0.03321938    -1.11950
C4          C  0.18004739  0.46956166  0.88459157     1.06230
O5          O  0.32193710  0.99764221  0.93014409    -0.78560
O6          O  0.27507340  0.03345084  0.87846677    -0.66140
Ni7        Ni  0.24030291  0.02844381  0.09767108     1.34870
C8          C  0.25806276  0.05483089  0.89433409     0.84960
O9          O  0.32332725  0.01678206  0.07670733    -0.79100
O10         O  0.29657414  0.04808024  0.12504749    -0.89370
C11         C  0.33450492  0.48090922  0.96599025     0.84530
O12         O  0.23314449  0.47542669  0.12451094    -0.67580
O13         O  0.20996162  0.46093536  0.87368947    -0.86860
C14         C  0.24515764  0.45044032  0.10713028     0.85360
C15         C  0.32449344  0.03617475  0.11571385     1.06930
H16         H  0.22748287  0.44805933  0.97366482     0.38740
O17         O  0.24627735  0.47664645  0.96705512    -1.09520
O18         O  0.25321121  0.05544559  0.94014964    -0.66180
Ni19       Ni  0.21874043  0.50843087  0.97968913     1.26350
O20         O  0.25001184  0.45004262  0.06113828    -0.66400
O21         O  0.17996096  0.48723312  0.92466769    -0.78700
C22         C  0.16891905  0.02044705  0.03550726     0.84750
O23         O  0.19006745  0.03766116  0.99840240    -0.65870
Ni24       Ni  0.26583224  0.47901315  0.90290932     1.27450
Ni25       Ni  0.28538263  0.99651829  0.02127946     1.26060
H26         H  0.27749786  0.05733326  0.02579201     0.39290
O27         O  0.16443024  0.18699132  0.92428785    -0.80660
O28         O  0.31238432  0.33403814  0.99569429    -0.65350
O29         O  0.24348810  0.22564550  0.95966153    -1.11950
C30         C  0.18354339  0.22267449  0.11493784     1.06230
O31         O  0.32115187  0.30101587  0.06167091    -0.78560
O32         O  0.27014096  0.22846163  0.11603736    -0.66140
Ni33       Ni  0.21908714  0.21420142  0.89519213     1.34870
C34         C  0.24836145  0.19387829  0.09677064     0.84960
O35         O  0.31019232  0.28938661  0.91969545    -0.79100
O36         O  0.27326617  0.24017632  0.86515482    -0.89370
C37         C  0.33290371  0.33390556  0.03430358     0.84530
O38         O  0.21615448  0.26561683  0.87469750    -0.67580
O39         O  0.21556910  0.25626325  0.12596403    -0.86860
C40         C  0.23825250  0.30049093  0.89384710     0.85360
C41         C  0.30558100  0.27283911  0.87786024     1.06930
H42         H  0.22627515  0.28467123  0.02744663     0.38740
O43         O  0.24250549  0.26917332  0.03093682    -1.09520
O44         O  0.24261868  0.19264286  0.05046388    -0.66180
Ni45       Ni  0.20889701  0.21468627  0.01541714     1.26350
O46         O  0.24330457  0.30186599  0.94021439    -0.66400
O47         O  0.17697551  0.20620799  0.07254944    -0.78700
C48         C  0.15443183  0.15668391  0.95611604     0.84750
O49         O  0.17456855  0.16074274  0.99609318    -0.65870
Ni50       Ni  0.26871599  0.27968771  0.09413749     1.27450
Ni51       Ni  0.27725398  0.28033403  0.97550328     1.26060
H52         H  0.25995927  0.21043546  0.96391400     0.39290
O53         O  0.31728276  0.00302143  0.58269088    -0.80660
O54         O  0.17001332  0.51023105  0.48908216    -0.65230
O55         O  0.24338546  0.46726643  0.53338989    -1.11950
C56         C  0.32216179  0.04460067  0.39556823     1.06230
O57         O  0.17468085  0.48764271  0.41585653    -0.78560
O58         O  0.23462926  0.46855583  0.37641847    -0.66140
Ni59       Ni  0.26035705  0.47003370  0.60054184     1.34870
C60         C  0.25469355  0.44966633  0.39516546     0.84960
O61         O  0.16766888  0.45786468  0.56314579    -0.79100
O62         O  0.20365820  0.43850529  0.62061698    -0.89370
C63         C  0.15695989  0.50124420  0.44541976     0.84530
O64         O  0.25472915  0.01695822  0.62413038    -0.67580
O65         O  0.28922524  0.04642043  0.37794731    -0.86860
C66         C  0.23615638  0.03727778  0.60532173     0.85360
C67         C  0.17058088  0.44081847  0.60454515     1.06930
H68         H  0.26051703  0.04891391  0.47456273     0.38740
O69         O  0.24780506  0.02007263  0.46606840    -1.09520
O70         O  0.26415803  0.45147390  0.44118329    -0.66180
Ni71       Ni  0.28431968  0.99774055  0.48564640     1.26350
O72         O  0.22655355  0.03559271  0.55927980    -0.66400
O73         O  0.32420204  0.02865814  0.43776317    -0.78700
C74         C  0.33629995  0.99125555  0.55269119     0.84750
O75         O  0.32095169  0.47740302  0.51121496    -0.65870
Ni76       Ni  0.23197542  0.01756935  0.39824232     1.27450
Ni77       Ni  0.20672690  0.48940145  0.51427332     1.26060
H78         H  0.23068629  0.43840906  0.52497333     0.39290
O79         O  0.00807144  0.31700195  0.92221847    -0.80660
O80         O  0.51936765  0.17158921  0.01515623    -0.65350
O81         O  0.47415870  0.24257212  0.96952952    -1.11950
C82         C  0.04800884  0.32128741  0.10898559     1.06230
O83         O  0.49466992  0.17481112  0.08776976    -0.78560
O84         O  0.47532063  0.23507770  0.12770710    -0.66140
Ni85       Ni  0.47776200  0.26027391  0.90279667     1.34870
C86         C  0.45496726  0.25338516  0.10813573     0.84960
O87         O  0.46769740  0.16777022  0.93988530    -0.79100
O88         O  0.44894037  0.20357668  0.88158281    -0.89370
C89         C  0.50733677  0.15668334  0.05746845     0.84530
O90         O  0.02666978  0.25811409  0.88054315    -0.67580
O91         O  0.05239458  0.28948876  0.12585726    -0.86860
C92         C  0.04625717  0.23868295  0.89887943     0.85360
C93         C  0.45120282  0.17058062  0.89806684     1.06930
H94         H  0.05561848  0.26219866  0.02964229     0.38740
O95         O  0.02670762  0.24842446  0.03775628    -1.09520
O96         O  0.45561102  0.26083681  0.06169813    -0.66180
Ni97       Ni  0.00245563  0.28329083  0.01822198     1.26350
O98         O  0.04439597  0.22860312  0.94480455    -0.66400
O99         O  0.03114712  0.32254335  0.06715820    -0.78700
C100        C  0.99386770  0.33436128  0.95146339     0.84750
O101        O  0.98033072  0.31856069  0.99285689    -0.65870
Ni102      Ni  0.02417794  0.23230566  0.10543054     1.27450
Ni103      Ni  0.49776516  0.20727783  0.98912393     1.26060
H104        H  0.44511572  0.22888006  0.97703721     0.39290
O105        O  0.50194557  0.18236540  0.43222584    -0.80660
O106        O  0.46311381  0.31478555  0.50023181    -0.65350
O107        O  0.02369786  0.25776688  0.47022571    -1.11950
C108        C  0.46211235  0.17927460  0.61750367     1.06230
O109        O  0.49374721  0.32214296  0.57451058    -0.78560
O110        O  0.02548387  0.27108145  0.62731696    -0.66140
Ni111      Ni  0.02210666  0.23850694  0.40608884     1.34870
C112        C  0.04936565  0.25751113  0.61007265     0.84960
O113        O  0.01332456  0.32372221  0.42710381    -0.79100
O114        O  0.04119232  0.29439076  0.37743987    -0.89370
C115        C  0.47957795  0.33626941  0.53744649     0.84530
O116        O  0.46830457  0.22980792  0.38068401    -0.67580
O117        O  0.45219014  0.20842036  0.62811494    -0.86860
C118        C  0.44558737  0.24525130  0.39655466     0.85360
C119        C  0.03143672  0.32369211  0.38746377     1.06930
H120        H  0.44268123  0.22776888  0.52862753     0.38740
O121        O  0.47124141  0.24634467  0.53592807    -1.09520
O122        O  0.04953268  0.25270187  0.56409689    -0.66180
Ni123      Ni  0.50278940  0.21852765  0.52385952     1.26350
O124        O  0.44516981  0.25109347  0.44225415    -0.66400
O125        O  0.48125085  0.18032618  0.57839910    -0.78700
C126        C  0.51720041  0.16891980  0.46850184     0.84750
O127        O  0.03231399  0.18967155  0.50650199    -0.65870
Ni128      Ni  0.47260481  0.26507948  0.60035645     1.27450
Ni129      Ni  0.99213595  0.28563820  0.48223249     1.26060
H130        H  0.05227275  0.27632688  0.47747251     0.39290
C131        C  0.05425908  0.13928075  0.39079010     0.03360
C132        C  0.05436752  0.13566566  0.44214152    -0.12790
C133        C  0.01801803  0.12906879  0.46417935     0.00860
C134        C  0.48124448  0.10024227  0.44312699    -0.11320
C135        C  0.47773101  0.09814564  0.39135304     0.03350
C136        C  0.01569731  0.11596158  0.36574312    -0.10740
H137        H  0.08247796  0.15034408  0.46393062     0.08940
H138        H  0.45475114  0.08942393  0.46614784     0.06470
H139        H  0.01528463  0.11251929  0.32689380     0.06320
C140        C  0.27309858  0.43005948  0.36138939     0.03360
C141        C  0.30345082  0.41843961  0.38108749    -0.12790
C142        C  0.33307110  0.41500087  0.35109593     0.00860
C143        C  0.33022151  0.42154204  0.30070986    -0.11320
C144        C  0.29504062  0.42377369  0.27829300     0.03350
C145        C  0.26760708  0.43048658  0.30923231    -0.10740
H146        H  0.30447550  0.41366398  0.42042103     0.08940
H147        H  0.35554374  0.42366184  0.27889762     0.06470
H148        H  0.24269160  0.43655489  0.29318553     0.06320
C149        C  0.36004019  0.05959348  0.36582144     0.03360
C150        C  0.39867270  0.07179023  0.39047584    -0.12790
C151        C  0.43578620  0.08411979  0.36489588     0.00860
C152        C  0.43245203  0.08551888  0.31330043    -0.11320
C153        C  0.39407314  0.06731426  0.28749974     0.03350
C154        C  0.35767134  0.05549614  0.31434645    -0.10740
H155        H  0.39874771  0.07196066  0.42995739     0.08940
H156        H  0.45976213  0.10129119  0.29229794     0.06470
H157        H  0.32756785  0.04147045  0.29608456     0.06320
C158        C  0.40354789  0.35885773  0.37190763     0.03360
C159        C  0.38034325  0.37769268  0.34592481    -0.12790
C160        C  0.36551772  0.40247022  0.37196099     0.00860
C161        C  0.37495775  0.40678320  0.42260821    -0.11320
C162        C  0.38233698  0.37573711  0.44621968     0.03350
C163        C  0.40975246  0.36514536  0.42283248    -0.10740
H164        H  0.37126796  0.37038374  0.30779822     0.08940
H165        H  0.36526269  0.42501391  0.44488823     0.06470
H166        H  0.42631807  0.35140596  0.44498777     0.06320
C167        C  0.42670545  0.26509551  0.36079562     0.03360
C168        C  0.41330755  0.29305123  0.37918991    -0.12790
C169        C  0.41387896  0.32668735  0.35023954     0.00860
C170        C  0.42429470  0.32901949  0.30105275    -0.11320
C171        C  0.42766348  0.29561760  0.27833878     0.03350
C172        C  0.43138689  0.26487837  0.30938737    -0.10740
H173        H  0.40517870  0.28989130  0.41742195     0.08940
H174        H  0.42845322  0.35679303  0.28030873     0.06470
H175        H  0.43860489  0.24153609  0.29412855     0.06320
C176        C  0.04010937  0.35936878  0.35173067     0.03360
C177        C  0.03657735  0.39450645  0.36753980    -0.12790
C178        C  0.05057706  0.43140417  0.33875345     0.00860
C179        C  0.05665420  0.42868149  0.28904975    -0.11320
C180        C  0.05838041  0.39334459  0.26993470     0.03350
C181        C  0.05128748  0.35912586  0.30254825    -0.10740
H182        H  0.02677141  0.39460947  0.40460829     0.08940
H183        H  0.06156657  0.45528256  0.26598316     0.06470
H184        H  0.05393712  0.33225377  0.29003275     0.06320
C185        C  0.11439234  0.04906992  0.35873343     0.03360
C186        C  0.13102858  0.04540592  0.40531275    -0.12790
C187        C  0.12168282  0.50722239  0.42693904     0.00860
C188        C  0.08857147  0.47256803  0.40993941    -0.11320
C189        C  0.07069176  0.47289841  0.36318217     0.03350
C190        C  0.08368946  0.51211530  0.33745670    -0.10740
H191        H  0.15826648  0.07076634  0.42033214     0.08940
H192        H  0.08430613  0.44394631  0.42870535     0.06470
H193        H  0.07207847  0.51368511  0.30055664     0.06320
C194        C  0.16269158  0.22797958  0.36530461     0.03360
C195        C  0.12683435  0.20081238  0.39035617    -0.12790
C196        C  0.09136735  0.17181570  0.36511055     0.00860
C197        C  0.09046124  0.17613220  0.31419437    -0.11320
C198        C  0.12655039  0.19649903  0.28775349     0.03350
C199        C  0.16303510  0.22366574  0.31361101    -0.10740
H200        H  0.12718355  0.20286065  0.42968913     0.08940
H201        H  0.06146569  0.16318092  0.29423473     0.06470
H202        H  0.19171474  0.23998324  0.29447605     0.06320
C203        C  0.20128983  0.15421725  0.34214473     0.03360
C204        C  0.21228272  0.15366492  0.29332660    -0.12790
C205        C  0.18506073  0.12277058  0.26145169     0.00860
C206        C  0.14831422  0.09046123  0.28153017    -0.11320
C207        C  0.13888330  0.08923876  0.33090710     0.03350
C208        C  0.16234809  0.12454300  0.35775238    -0.10740
H209        H  0.24142182  0.17726250  0.28051529     0.08940
H210        H  0.12663868  0.06542229  0.25988565     0.06470
H211        H  0.15169910  0.12620180  0.39390153     0.06320
C212        C  0.26060608  0.42636797  0.14144203     0.03360
C213        C  0.26445365  0.43241933  0.19309799    -0.12790
C214        C  0.28811989  0.41721752  0.22335028     0.00860
C215        C  0.30789215  0.39626288  0.20035087    -0.11320
C216        C  0.30779450  0.39342903  0.14933263     0.03350
C217        C  0.28126938  0.40554262  0.12084215    -0.10740
H218        H  0.25088179  0.45058007  0.20904498     0.08940
H219        H  0.32483220  0.38290846  0.22215635     0.06470
H220        H  0.27838563  0.40094229  0.08162030     0.06320
C221        C  0.35986285  0.04359907  0.15141777     0.03360
C222        C  0.39450235  0.03950514  0.13507253    -0.12790
C223        C  0.43129224  0.05207521  0.16392347     0.00860
C224        C  0.42864992  0.05697269  0.21396165    -0.11320
C225        C  0.39352975  0.05884564  0.23356752     0.03350
C226        C  0.35963093  0.05348950  0.20112495    -0.10740
H227        H  0.39433703  0.03029533  0.09762965     0.08940
H228        H  0.45495714  0.06062593  0.23709921     0.06470
H229        H  0.33305521  0.05640478  0.21427690     0.06320
C230        C  0.33799947  0.38139908  0.12574479     0.03360
C231        C  0.35000253  0.39411335  0.07688264    -0.12790
C232        C  0.36678433  0.37223902  0.05190553     0.00860
C233        C  0.39593947  0.36362303  0.07879653    -0.11320
C234        C  0.38491171  0.34721436  0.12658278     0.03350
C235        C  0.35453013  0.35577471  0.14988479    -0.10740
H236        H  0.33855288  0.41304651  0.05545155     0.08940
H237        H  0.41809786  0.35774362  0.05870316     0.06470
H238        H  0.34193037  0.34080500  0.18443970     0.06320
C239        C  0.43343494  0.27052221  0.14100279     0.03360
C240        C  0.43864391  0.27051286  0.19346160    -0.12790
C241        C  0.42373971  0.29285537  0.22287051     0.00860
C242        C  0.40318087  0.31399440  0.19890842    -0.11320
C243        C  0.40077088  0.31776850  0.14825851     0.03350
C244        C  0.41438031  0.29446734  0.11939192    -0.10740
H245        H  0.45540146  0.25457479  0.21085035     0.08940
H246        H  0.38932264  0.32890440  0.22012945     0.06470
H247        H  0.41096712  0.29546114  0.07976866     0.06320
C248        C  0.06110755  0.35890804  0.13858899     0.03360
C249        C  0.05790419  0.35712608  0.19014553    -0.12790
C250        C  0.06781453  0.39368717  0.21622261     0.00860
C251        C  0.08468730  0.43174337  0.18941534    -0.11320
C252        C  0.08204329  0.43375049  0.13777902     0.03350
C253        C  0.06966045  0.39642529  0.11326941    -0.10740
H254        H  0.04565337  0.32723498  0.20881548     0.08940
H255        H  0.10025563  0.45987375  0.20919411     0.06470
H256        H  0.06633819  0.39557706  0.07386493     0.06320
C257        C  0.12962454  0.05082200  0.10791007     0.03360
C258        C  0.12599391  0.04962853  0.05673949    -0.12790
C259        C  0.12637910  0.01508426  0.03711908     0.00860
C260        C  0.10086367  0.47699249  0.05832651    -0.11320
C261        C  0.09441854  0.47443804  0.10956515     0.03350
C262        C  0.10743557  0.01266007  0.13377225    -0.10740
H263        H  0.13835661  0.07770611  0.03463543     0.08940
H264        H  0.09776754  0.45074162  0.03788493     0.06470
H265        H  0.10252013  0.01290081  0.17237267     0.06320
C266        C  0.15367630  0.19781682  0.15301037     0.03360
C267        C  0.15430750  0.21109956  0.20099453    -0.12790
C268        C  0.12480101  0.18498268  0.23482487     0.00860
C269        C  0.09209140  0.14723868  0.21727663    -0.11320
C270        C  0.09011134  0.13528526  0.16863399     0.03350
C271        C  0.12505674  0.15754792  0.14079937    -0.10740
H272        H  0.17762988  0.24115936  0.21173128     0.08940
H273        H  0.06754626  0.12686154  0.24050747     0.06470
H274        H  0.12708361  0.14492202  0.10610977     0.06320
C275        C  0.22328498  0.15645951  0.12833410     0.03360
C276        C  0.22138843  0.15816640  0.18029165    -0.12790
C277        C  0.19404250  0.12291126  0.20779660     0.00860
C278        C  0.17092945  0.08669518  0.18233728    -0.11320
C279        C  0.16441811  0.08718216  0.13180324     0.03350
C280        C  0.19383142  0.12095760  0.10489058    -0.10740
H281        H  0.23973912  0.18701767  0.19832250     0.08940
H282        H  0.15754439  0.05780893  0.20236870     0.06470
H283        H  0.19415978  0.12040805  0.06544024     0.06320
C284        C  0.04956943  0.10989746  0.14166980     0.03360
C285        C  0.04637791  0.12335026  0.09305319    -0.12790
C286        C  0.50876368  0.11852188  0.07363427     0.00860
C287        C  0.47284821  0.08864494  0.09254156    -0.11320
C288        C  0.47272507  0.07084371  0.13944242     0.03350
C289        C  0.51201898  0.08241272  0.16473299    -0.10740
H290        H  0.07266465  0.14720394  0.07488199     0.08940
H291        H  0.44473943  0.08733846  0.07500147     0.06470
H292        H  0.51342052  0.07237473  0.20240712     0.06320
O293        O  0.19888542  0.17040147  0.56252006    -0.80660
O294        O  0.34196139  0.31720579  0.49501956    -0.65350
O295        O  0.23407562  0.24890651  0.53213836    -1.11950
C296        C  0.22723468  0.18604821  0.37799973     1.06230
O297        O  0.31352576  0.32661567  0.42425714    -0.78560
O298        O  0.23580594  0.27432388  0.37511447    -0.66140
Ni299      Ni  0.22331819  0.22281420  0.59528279     1.34870
C300        C  0.20131201  0.25339402  0.39534230     0.84960
O301        O  0.29771254  0.31473416  0.57298825    -0.79100
O302        O  0.24856465  0.27587692  0.62716711    -0.89370
C303        C  0.34385125  0.33832273  0.45622897     0.84530
O304        O  0.27419049  0.21924947  0.61506441    -0.67580
O305        O  0.26083464  0.21742085  0.36557934    -0.86860
C306        C  0.30915372  0.24225283  0.59717543     0.85360
C307        C  0.28119015  0.30855312  0.61530168     1.06930
H308        H  0.29169995  0.23065439  0.46421122     0.38740
O309        O  0.27669229  0.24733280  0.46026135    -1.09520
O310        O  0.20092070  0.24883607  0.44172033    -0.66180
Ni311      Ni  0.22188269  0.21427119  0.47637177     1.26350
O312        O  0.31128832  0.24903474  0.55097730    -0.66400
O313        O  0.21170932  0.18141111  0.42039568    -0.78700
C314        C  0.16593332  0.16104699  0.53553547     0.84750
O315        O  0.16770988  0.18077529  0.49590998    -0.65870
Ni316      Ni  0.28717710  0.27169618  0.39568222     1.27450
Ni317      Ni  0.28852963  0.28231040  0.51592674     1.26060
H318        H  0.21882907  0.26539890  0.52893372     0.39290
C319        C  0.30352090  0.34073290  0.65208914     0.03360
C320        C  0.34008628  0.37460427  0.63776058    -0.12790
C321        C  0.35764163  0.41078132  0.66483489     0.00860
C322        C  0.34289505  0.40873459  0.71215618    -0.11320
C323        C  0.31301617  0.37070926  0.73300359     0.03350
C324        C  0.29142888  0.33761759  0.70112315    -0.10740
H325        H  0.35322538  0.37440619  0.60273864     0.08940
H326        H  0.35402869  0.43718962  0.73204287     0.06470
H327        H  0.26633377  0.30939139  0.71414934     0.06320
C328        C  0.34515955  0.26878864  0.63019088     0.03360
C329        C  0.34221268  0.26953714  0.68215537    -0.12790
C330        C  0.37173848  0.30331209  0.70950708     0.00860
C331        C  0.40094019  0.33711179  0.68341826    -0.11320
C332        C  0.40768517  0.33495851  0.63435344     0.03350
C333        C  0.38022106  0.30000775  0.60801981    -0.10740
H334        H  0.31652554  0.24497814  0.70035866     0.08940
H335        H  0.41932549  0.36606283  0.70127635     0.06470
H336        H  0.38485575  0.29767258  0.56949584     0.06320
C337        C  0.38249163  0.45119265  0.63807273     0.03360
C338        C  0.36994968  0.45360374  0.58913044    -0.12790
C339        C  0.37479834  0.49095645  0.56910271     0.00860
C340        C  0.40421285  0.02725655  0.58804005    -0.11320
C341        C  0.42214973  0.02789716  0.63503599     0.03350
C342        C  0.40988391  0.98876644  0.66096181    -0.10740
H343        H  0.34626832  0.42680098  0.57138214     0.08940
H344        H  0.40528083  0.05503884  0.57007388     0.06470
H345        H  0.41917963  0.98716794  0.69891045     0.06320
C346        C  0.45268977  0.14212034  0.65116110     0.03360
C347        C  0.44565514  0.14136606  0.70210114    -0.12790
C348        C  0.44147822  0.10650954  0.73243476     0.00860
C349        C  0.44307273  0.07247333  0.70985892    -0.11320
C350        C  0.44230081  0.06962989  0.65908055     0.03350
C351        C  0.45268276  0.10656229  0.63113750    -0.10740
H352        H  0.44438330  0.16796288  0.71768427     0.08940
H353        H  0.44383822  0.04716031  0.73139232     0.06470
H354        H  0.45899751  0.10712846  0.59253322     0.06320
C355        C  0.07308175  0.24115259  0.64405075     0.03360
C356        C  0.09431337  0.22102660  0.62280548    -0.12790
C357        C  0.10746931  0.19493248  0.65074414     0.00860
C358        C  0.10501803  0.19479863  0.70181637    -0.11320
C359        C  0.08266101  0.21283262  0.72524202     0.03350
C360        C  0.06675237  0.23629387  0.69566344    -0.10740
H361        H  0.09866420  0.22427611  0.58358602     0.08940
H362        H  0.11936710  0.17877340  0.72356526     0.06470
H363        H  0.04791715  0.24889800  0.71204917     0.06320
C364        C  0.11920636  0.16440232  0.62691154     0.03360
C365        C  0.10743092  0.15328074  0.57750864    -0.12790
C366        C  0.12569337  0.13178754  0.55432637     0.00860
C367        C  0.12983633  0.10098027  0.58280132    -0.11320
C368        C  0.14811338  0.11289501  0.62955356     0.03350
C369        C  0.14248443  0.14544832  0.65198998    -0.10740
H370        H  0.09124890  0.16702581  0.55470396     0.08940
H371        H  0.13259483  0.07642702  0.56391267     0.06470
H372        H  0.15793265  0.15763904  0.68649531     0.06320
C373        C  0.22169853  0.06054811  0.63915796     0.03360
C374        C  0.19814830  0.08056710  0.61910857    -0.12790
C375        C  0.17755056  0.09634131  0.64948532     0.00860
C376        C  0.18423281  0.09552895  0.69975416    -0.11320
C377        C  0.20457036  0.07358333  0.72230201     0.03350
C378        C  0.22402425  0.05644386  0.69161697    -0.10740
H379        H  0.19538737  0.08309008  0.57953839     0.08940
H380        H  0.17181719  0.11124494  0.72200551     0.06470
H381        H  0.23937278  0.03879911  0.70816496     0.06320
C382        C  0.13427132  0.42725952  0.63639626     0.03360
C383        C  0.09538375  0.41584147  0.61338019    -0.12790
C384        C  0.06275293  0.41812892  0.63772118     0.00860
C385        C  0.06953624  0.43012630  0.68674208    -0.11320
C386        C  0.10587140  0.43463392  0.71386134     0.03350
C387        C  0.13896435  0.43463682  0.68738011    -0.10740
H388        H  0.09173798  0.40670666  0.57547454     0.08940
H389        H  0.04578344  0.43575333  0.70346371     0.06470
H390        H  0.16869389  0.44205428  0.70527131     0.06320
C391        C  0.44500147  0.36843256  0.61206575     0.03360
C392        C  0.44554697  0.37426129  0.56095761    -0.12790
C393        C  0.48114701  0.37781746  0.53940903     0.00860
C394        C  0.01793744  0.40642664  0.56080269    -0.11320
C395        C  0.02130944  0.40636940  0.61260701     0.03350
C396        C  0.48376139  0.38602641  0.63856733    -0.10740
H397        H  0.41694207  0.36107318  0.53954633     0.08940
H398        H  0.04492622  0.41957769  0.53822827     0.06470
H399        H  0.48508509  0.37984889  0.67768243     0.06320
C400        C  0.45031131  0.37480377  0.86302821     0.03360
C401        C  0.45276993  0.36307921  0.91229888    -0.12790
C402        C  0.99073806  0.37120043  0.93410057     0.00860
C403        C  0.02652827  0.40164919  0.91501370    -0.11320
C404        C  0.02657589  0.41626477  0.86659149     0.03350
C405        C  0.98760370  0.40280463  0.84039816    -0.10740
H406        H  0.42634146  0.33836411  0.92937870     0.08940
H407        H  0.05509548  0.40540768  0.93370922     0.06470
H408        H  0.98635147  0.41180952  0.80218967     0.06320
C409        C  0.23571116  0.07172201  0.85921032     0.03360
C410        C  0.23471550  0.06651443  0.80776077    -0.12790
C411        C  0.20325672  0.06994545  0.77774052     0.00860
C412        C  0.17050264  0.07371532  0.80130156    -0.11320
C413        C  0.17392686  0.08489936  0.85029365     0.03350
C414        C  0.20788724  0.08507186  0.87856333    -0.10740
H415        H  0.25779035  0.05938193  0.79159969     0.08940
H416        H  0.14253675  0.06969121  0.78093641     0.06470
H417        H  0.21186162  0.09344849  0.91673159     0.06320
C418        C  0.14305119  0.45865134  0.85008780     0.03360
C419        C  0.14438133  0.45337992  0.79888836    -0.12790
C420        C  0.10750729  0.43925315  0.76900819     0.00860
C421        C  0.06965400  0.42652651  0.79284027    -0.11320
C422        C  0.06766104  0.43500386  0.84186783     0.03350
C423        C  0.10528638  0.45377047  0.86924732    -0.10740
H424        H  0.17390393  0.46062443  0.78301421     0.08940
H425        H  0.04111201  0.40750694  0.77377264     0.06470
H426        H  0.10486572  0.46164286  0.90711487     0.06320
C427        C  0.26601453  0.33759983  0.86307122     0.03360
C428        C  0.27058505  0.33611364  0.81149388    -0.12790
C429        C  0.30565948  0.36720145  0.78743085     0.00860
C430        C  0.33689875  0.39621323  0.81674428    -0.11320
C431        C  0.33040380  0.40208943  0.86483643     0.03350
C432        C  0.29449289  0.37296259  0.88786448    -0.10740
H433        H  0.24794888  0.31037242  0.79128201     0.08940
H434        H  0.36692040  0.41576073  0.80203871     0.06470
H435        H  0.28929747  0.37680468  0.92578747     0.06320
C436        C  0.33966278  0.29529043  0.84332219     0.03360
C437        C  0.37375848  0.33072043  0.86059867    -0.12790
C438        C  0.41076660  0.34898135  0.83530606     0.00860
C439        C  0.41041843  0.33542106  0.78784363    -0.11320
C440        C  0.37306024  0.30704209  0.76438540     0.03350
C441        C  0.33833710  0.28490770  0.79377750    -0.10740
H442        H  0.37271116  0.34281892  0.89603265     0.08940
H443        H  0.43951227  0.34698232  0.76922724     0.06470
H444        H  0.31021958  0.26111189  0.77831178     0.06320
C445        C  0.36042766  0.44046616  0.88885608     0.03360
C446        C  0.36561912  0.44110536  0.94006310    -0.12790
C447        C  0.37381474  0.47815690  0.96174366     0.00860
C448        C  0.40347458  0.01340490  0.93885778    -0.11320
C449        C  0.40008467  0.01685687  0.88719571     0.03350
C450        C  0.37753302  0.47899974  0.86212859    -0.10740
H451        H  0.35096438  0.41286321  0.96174292     0.08940
H452        H  0.42002634  0.03996309  0.96142482     0.06470
H453        H  0.36985760  0.47906988  0.82343035     0.06320
C454        C  0.43649663  0.13391573  0.86660529     0.03360
C455        C  0.44304456  0.13829515  0.81556926    -0.12790
C456        C  0.43350102  0.10326976  0.78689883     0.00860
C457        C  0.41695019  0.06389316  0.81104250    -0.11320
C458        C  0.41353016  0.05894163  0.86222663     0.03350
C459        C  0.42194630  0.09451908  0.88922473    -0.10740
H460        H  0.45716206  0.16904127  0.79908904     0.08940
H461        H  0.40642495  0.03652792  0.78993890     0.06470
H462        H  0.41696552  0.09238405  0.92826176     0.06320
C463        C  0.06666883  0.22178460  0.86416935     0.03360
C464        C  0.07769931  0.19063073  0.88205577    -0.12790
C465        C  0.08200287  0.16246789  0.85028643     0.00860
C466        C  0.07707878  0.16771496  0.80002680    -0.11320
C467        C  0.07506636  0.20367075  0.77976326     0.03350
C468        C  0.06745046  0.22953159  0.81230328    -0.10740
H469        H  0.08138383  0.18784275  0.92139604     0.08940
H470        H  0.07610120  0.14368981  0.77664315     0.06470
H471        H  0.06164836  0.25498329  0.79762745     0.06320
C472        C  0.14213823  0.09598837  0.87197741     0.03360
C473        C  0.13671057  0.09153360  0.92314276    -0.12790
C474        C  0.12092396  0.11570130  0.94487326     0.00860
C475        C  0.08792967  0.11815645  0.91959274    -0.11320
C476        C  0.09405698  0.12930686  0.86967956     0.03350
C477        C  0.12131242  0.11689279  0.84480767    -0.10740
H478        H  0.15269706  0.07799256  0.94659051     0.08940
H479        H  0.06690272  0.12509233  0.94052763     0.06470
H480        H  0.12877172  0.12610291  0.80677348     0.06320
O481        O  0.18370413  0.00743971  0.07271014    -0.80660
O482        O  0.31338530  0.96608610  0.00376066    -0.65350
O483        O  0.25849226  0.52893513  0.03325382    -1.11950
C484        C  0.18003563  0.96959621  0.88456928     1.06230
O485        O  0.32193534  0.49763005  0.93019065    -0.78560
O486        O  0.27507281  0.53340457  0.87848731    -0.66140
Ni487      Ni  0.24030678  0.52839449  0.09770359     1.34870
C488        C  0.25808926  0.55480412  0.89436538     0.84960
O489        O  0.32332749  0.51671928  0.07674262    -0.79100
O490        O  0.29657297  0.54800580  0.12509647    -0.89370
C491        C  0.33450037  0.98093242  0.96596397     0.84530
O492        O  0.23316534  0.97548870  0.12449634    -0.67580
O493        O  0.20995687  0.96098500  0.87365632    -0.86860
C494        C  0.24518104  0.95050453  0.10711564     0.85360
C495        C  0.32449083  0.53609907  0.11575857     1.06930
H496        H  0.22748607  0.94809703  0.97363861     0.38740
O497        O  0.24627487  0.97668542  0.96702548    -1.09520
O498        O  0.25323930  0.55541529  0.94018196    -0.66180
Ni499      Ni  0.21872622  0.00846040  0.97966465     1.26350
O500        O  0.25001565  0.95009566  0.06112022    -0.66400
O501        O  0.17994212  0.98725271  0.92465356    -0.78700
C502        C  0.16894053  0.52043786  0.03552282     0.84750
O503        O  0.19009454  0.53764472  0.99842020    -0.65870
Ni504      Ni  0.26582739  0.97905077  0.90287390     1.27450
Ni505      Ni  0.28538543  0.49647006  0.02131075     1.26060
H506        H  0.27751111  0.55728970  0.02583320     0.39290
O507        O  0.16449574  0.68699445  0.92434591    -0.80660
O508        O  0.31242893  0.83403758  0.99573186    -0.65350
O509        O  0.24355313  0.72563846  0.95971487    -1.11950
C510        C  0.18358786  0.72264850  0.11498355     1.06230
O511        O  0.32120945  0.80105565  0.06174373    -0.78560
O512        O  0.27020979  0.72847190  0.11608515    -0.66140
Ni513      Ni  0.21915007  0.71418810  0.89524795     1.34870
C514        C  0.24843396  0.69388632  0.09681942     0.84960
O515        O  0.31025120  0.78937531  0.91974301    -0.79100
O516        O  0.27332880  0.74015066  0.86521404    -0.89370
C517        C  0.33294785  0.83393151  0.03435045     0.84530
O518        O  0.21622317  0.76560237  0.87473674    -0.67580
O519        O  0.21560889  0.75623907  0.12601658    -0.86860
C520        C  0.23831671  0.80047639  0.89388715     0.85360
C521        C  0.30564190  0.77281700  0.87791344     1.06930
H522        H  0.22632511  0.78465957  0.02748828     0.38740
O523        O  0.24256012  0.76916685  0.03098522    -1.09520
O524        O  0.24269201  0.69264822  0.05051319    -0.66180
Ni525      Ni  0.20895901  0.71467611  0.01546575     1.26350
O526        O  0.24335813  0.80185076  0.94025521    -0.66400
O527        O  0.17703042  0.70618783  0.07259341    -0.78700
C528        C  0.15449433  0.65668166  0.95616550     0.84750
O529        O  0.17463600  0.66073124  0.99613798    -0.65870
Ni530      Ni  0.26876103  0.77969056  0.09419418     1.27450
Ni531      Ni  0.27731139  0.78032823  0.97555194     1.26060
H532        H  0.26002775  0.71043200  0.96396849     0.39290
O533        O  0.31729797  0.50297110  0.58273104    -0.80660
O534        O  0.17001188  0.01028909  0.48905699    -0.65230
O535        O  0.24337627  0.96731666  0.53336149    -1.11950
C536        C  0.32216780  0.54455737  0.39560199     1.06230
O537        O  0.17467543  0.98770505  0.41582536    -0.78560
O538        O  0.23462339  0.96861195  0.37638858    -0.66140
Ni539      Ni  0.26034850  0.97008181  0.60051176     1.34870
C540        C  0.25467956  0.94971583  0.39514095     0.84960
O541        O  0.16766498  0.95792253  0.56312422    -0.79100
O542        O  0.20365154  0.93855285  0.62058930    -0.89370
C543        C  0.15695372  0.00130009  0.44539648     0.84530
O544        O  0.25473821  0.51691289  0.62415807    -0.67580
O545        O  0.28922778  0.54636689  0.37797634    -0.86860
C546        C  0.23616278  0.53723141  0.60535188     0.85360
C547        C  0.17057619  0.94087203  0.60452158     1.06930
H548        H  0.26051825  0.54886262  0.47459046     0.38740
O549        O  0.24780945  0.52002112  0.46609718    -1.09520
O550        O  0.26413489  0.95151766  0.44116037    -0.66180
Ni551      Ni  0.28432801  0.49769428  0.48567636     1.26350
O552        O  0.22654853  0.53553772  0.55931209    -0.66400
O553        O  0.32421153  0.52861995  0.43779889    -0.78700
C554        C  0.33632369  0.49123137  0.55271059     0.84750
O555        O  0.32093968  0.97744271  0.51118548    -0.65870
Ni556      Ni  0.23197881  0.51751204  0.39827111     1.27450
Ni557      Ni  0.20672216  0.98945548  0.51424598     1.26060
H558        H  0.23067393  0.93845909  0.52494576     0.39290
O559        O  0.00812270  0.81700025  0.92224996    -0.80660
O560        O  0.51923211  0.67152138  0.01517330    -0.65350
O561        O  0.47410402  0.74257722  0.96957621    -1.11950
C562        C  0.04802066  0.82128734  0.10901799     1.06230
O563        O  0.49456760  0.67477530  0.08779491    -0.78560
O564        O  0.47528827  0.73508372  0.12774968    -0.66140
Ni565      Ni  0.47770463  0.76027430  0.90284185     1.34870
C566        C  0.45496226  0.75342210  0.10818474     0.84960
O567        O  0.46755692  0.66774397  0.93992683    -0.79100
O568        O  0.44882614  0.70357835  0.88163519    -0.89370
C569        C  0.50723481  0.65664144  0.05750320     0.84530
O570        O  0.02671477  0.75811444  0.88056879    -0.67580
O571        O  0.05240745  0.78949106  0.12589684    -0.86860
C572        C  0.04631089  0.73869462  0.89891106     0.85360
C573        C  0.45106530  0.67056900  0.89811224     1.06930
H574        H  0.05565661  0.76220590  0.02967947     0.38740
O575        O  0.02674460  0.74842816  0.03778777    -1.09520
O576        O  0.45561409  0.76088513  0.06174945    -0.66180
Ni577      Ni  0.00248904  0.78329033  0.01824630     1.26350
O578        O  0.04444989  0.72861834  0.94483733    -0.66400
O579        O  0.03117005  0.82254152  0.06718312    -0.78700
C580        C  0.99390287  0.83435570  0.95147803     0.84750
O581        O  0.98036329  0.81855857  0.99287246    -0.65870
Ni582      Ni  0.02420846  0.73230766  0.10546273     1.27450
Ni583      Ni  0.49766564  0.70724277  0.98915771     1.26060
H584        H  0.44506255  0.72891179  0.97709567     0.39290
O585        O  0.50189532  0.68236795  0.43227614    -0.80660
O586        O  0.46311095  0.81482837  0.50025915    -0.65350
O587        O  0.02373022  0.75778209  0.47025033    -1.11950
C588        C  0.46208512  0.67931919  0.61754669     1.06230
O589        O  0.49375681  0.82218966  0.57453065    -0.78560
O590        O  0.02551662  0.77108680  0.62733960    -0.66140
Ni591      Ni  0.02215405  0.73853710  0.40610720     1.34870
C592        C  0.04939568  0.75751052  0.61009837     0.84960
O593        O  0.01333683  0.82373226  0.42713129    -0.79100
O594        O  0.04122892  0.79442343  0.37747086    -0.89370
C595        C  0.47958089  0.83631426  0.53747061     0.84530
O596        O  0.46825596  0.72981274  0.38073034    -0.67580
O597        O  0.45217266  0.70847185  0.62815650    -0.86860
C598        C  0.44555600  0.74527701  0.39659863     0.85360
C599        C  0.03145695  0.82371365  0.38749362     1.06930
H600        H  0.44266316  0.72781101  0.52867097     0.38740
O601        O  0.47122564  0.74638323  0.53596528    -1.09520
O602        O  0.04956340  0.75270187  0.56412254    -0.66180
Ni603      Ni  0.50276222  0.71855435  0.52389814     1.26350
O604        O  0.44514475  0.75112350  0.44229740    -0.66400
O605        O  0.48122247  0.68036413  0.57844399    -0.78700
C606        C  0.51716602  0.66893249  0.46854579     0.84750
O607        O  0.03234940  0.68968356  0.50651456    -0.65870
Ni608      Ni  0.47260165  0.76512916  0.60038978     1.27450
Ni609      Ni  0.99215491  0.78564059  0.48225632     1.26060
H610        H  0.05230238  0.77634656  0.47750411     0.39290
C611        C  0.05426282  0.63921137  0.39083175     0.03360
C612        C  0.05436304  0.63562044  0.44218378    -0.12790
C613        C  0.01802063  0.62906868  0.46420320     0.00860
C614        C  0.48125104  0.60025147  0.44316281    -0.11320
C615        C  0.47774063  0.59815093  0.39139003     0.03350
C616        C  0.01570030  0.61588981  0.36578395    -0.10740
H617        H  0.08247294  0.65029266  0.46397546     0.08940
H618        H  0.45475640  0.58940991  0.46618411     0.06470
H619        H  0.01528961  0.61241782  0.32693858     0.06320
C620        C  0.27308824  0.93010853  0.36137281     0.03360
C621        C  0.30342027  0.91846684  0.38108723    -0.12790
C622        C  0.33305449  0.91503466  0.35111549     0.00860
C623        C  0.33023584  0.92160087  0.30072953    -0.11320
C624        C  0.29507035  0.92385078  0.27828937     0.03350
C625        C  0.26762517  0.93055899  0.30921356    -0.10740
H626        H  0.30442021  0.91367180  0.42041930     0.08940
H627        H  0.35557147  0.92372886  0.27893727     0.06470
H628        H  0.24272306  0.93664299  0.29315467     0.06320
C629        C  0.36004563  0.55955357  0.36585640     0.03360
C630        C  0.39868120  0.57178120  0.39051090    -0.12790
C631        C  0.43579378  0.58409833  0.36493204     0.00860
C632        C  0.43245551  0.58545892  0.31333514    -0.11320
C633        C  0.39407488  0.56724008  0.28754073     0.03350
C634        C  0.35767447  0.55542754  0.31438682    -0.10740
H635        H  0.39875841  0.57198679  0.42999070     0.08940
H636        H  0.45976317  0.60121430  0.29232554     0.06470
H637        H  0.32757013  0.54138459  0.29612919     0.06320
C638        C  0.40354608  0.85890754  0.37195313     0.03360
C639        C  0.38033546  0.87773380  0.34596639    -0.12790
C640        C  0.36548868  0.90249406  0.37200095     0.00860
C641        C  0.37490644  0.90679249  0.42265419    -0.11320
C642        C  0.38230940  0.87575901  0.44626213     0.03350
C643        C  0.40974366  0.86519211  0.42287804    -0.10740
H644        H  0.37127353  0.87043199  0.30783536     0.08940
H645        H  0.36519060  0.92500557  0.44493597     0.06470
H646        H  0.42631227  0.85145492  0.44503210     0.06320
C647        C  0.42669279  0.76513919  0.36083904     0.03360
C648        C  0.41329832  0.79309731  0.37923425    -0.12790
C649        C  0.41388455  0.82674166  0.35028861     0.00860
C650        C  0.42432051  0.82908618  0.30110876    -0.11320
C651        C  0.42768550  0.79568502  0.27838839     0.03350
C652        C  0.43138763  0.76493219  0.30943232    -0.10740
H653        H  0.40515951  0.78993210  0.41746338     0.08940
H654        H  0.42849857  0.85687043  0.28037677     0.06470
H655        H  0.43860158  0.74158791  0.29417191     0.06320
C656        C  0.04011741  0.85938776  0.35175923     0.03360
C657        C  0.03657673  0.89452156  0.36756632    -0.12790
C658        C  0.05055923  0.93141499  0.33877138     0.00860
C659        C  0.05662884  0.92868768  0.28906618    -0.11320
C660        C  0.05836752  0.89335559  0.26995557     0.03350
C661        C  0.05129035  0.85914364  0.30257468    -0.10740
H662        H  0.02677646  0.89462515  0.40463758     0.08940
H663        H  0.06152721  0.95528244  0.26599450     0.06470
H664        H  0.05394800  0.83227499  0.29006200     0.06320
C665        C  0.11443710  0.54904938  0.35874782     0.03360
C666        C  0.13106449  0.54537171  0.40532791    -0.12790
C667        C  0.12166420  0.00726220  0.42692955     0.00860
C668        C  0.08855608  0.97259885  0.40994325    -0.11320
C669        C  0.07066624  0.97291490  0.36318890     0.03350
C670        C  0.08364957  0.01212672  0.33745358    -0.10740
H671        H  0.15830568  0.57072429  0.42035427     0.08940
H672        H  0.08430318  0.94398310  0.42871522     0.06470
H673        H  0.07203188  0.01368635  0.30055445     0.06320
C674        C  0.16269763  0.72791507  0.36534841     0.03360
C675        C  0.12684282  0.70074037  0.39039831    -0.12790
C676        C  0.09137826  0.67173759  0.36515180     0.00860
C677        C  0.09047558  0.67604749  0.31423470    -0.11320
C678        C  0.12656433  0.69643045  0.28779378     0.03350
C679        C  0.16304341  0.72360489  0.31365456    -0.10740
H680        H  0.12719228  0.70279089  0.42973083     0.08940
H681        H  0.06147940  0.66308553  0.29427788     0.06470
H682        H  0.19172212  0.73993355  0.29452132     0.06320
C683        C  0.20134529  0.65419710  0.34218447     0.03360
C684        C  0.21234261  0.65365153  0.29336778    -0.12790
C685        C  0.18512384  0.62276153  0.26148753     0.00860
C686        C  0.14837376  0.59045095  0.28155675    -0.11320
C687        C  0.13893857  0.58922085  0.33093300     0.03350
C688        C  0.16240402  0.62451853  0.35778787    -0.10740
H689        H  0.24148250  0.67725134  0.28056149     0.08940
H690        H  0.12669917  0.56541699  0.25990469     0.06470
H691        H  0.15175260  0.62617132  0.39393767     0.06320
C692        C  0.26065585  0.92645378  0.14142827     0.03360
C693        C  0.26449838  0.93250452  0.19308456    -0.12790
C694        C  0.28817296  0.91731445  0.22334044     0.00860
C695        C  0.30796066  0.89637496  0.20034246    -0.11320
C696        C  0.30786408  0.89353664  0.14932479     0.03350
C697        C  0.28133496  0.90564333  0.12083027    -0.10740
H698        H  0.25090987  0.95065097  0.20902967     0.08940
H699        H  0.32490394  0.88302661  0.22214978     0.06470
H700        H  0.27845155  0.90104202  0.08160911     0.06320
C701        C  0.35985615  0.54350811  0.15146622     0.03360
C702        C  0.39449103  0.53940205  0.13512485    -0.12790
C703        C  0.43128480  0.55198055  0.16397171     0.00860
C704        C  0.42864432  0.55687782  0.21400956    -0.11320
C705        C  0.39352666  0.55875670  0.23361382     0.03350
C706        C  0.35962857  0.55340434  0.20117154    -0.10740
H707        H  0.39432574  0.53019112  0.09768232     0.08940
H708        H  0.45495428  0.56053431  0.23714480     0.06470
H709        H  0.33305817  0.55633073  0.21432179     0.06320
C710        C  0.33806373  0.88149357  0.12574506     0.03360
C711        C  0.35004732  0.89417140  0.07686988    -0.12790
C712        C  0.36682687  0.87228253  0.05191641     0.00860
C713        C  0.39599616  0.86369545  0.07881455    -0.11320
C714        C  0.38498119  0.84731349  0.12661215     0.03350
C715        C  0.35460468  0.85588554  0.14990676    -0.10740
H716        H  0.33858825  0.91308720  0.05541968     0.08940
H717        H  0.41815217  0.85780791  0.05872689     0.06470
H718        H  0.34201357  0.84093112  0.18447090     0.06320
C719        C  0.43345112  0.77058024  0.14105380     0.03360
C720        C  0.43865932  0.77057161  0.19351260    -0.12790
C721        C  0.42377727  0.79293619  0.22291795     0.00860
C722        C  0.40324840  0.81410301  0.19894960    -0.11320
C723        C  0.40083252  0.81786579  0.14829941     0.03350
C724        C  0.41441555  0.79454043  0.11943941    -0.10740
H725        H  0.45539748  0.75461469  0.21090341     0.08940
H726        H  0.38940912  0.82903573  0.22016251     0.06470
H727        H  0.41099442  0.79552468  0.07981662     0.06320
C728        C  0.06110457  0.85890874  0.13861716     0.03360
C729        C  0.05790424  0.85713333  0.19017382    -0.12790
C730        C  0.06779910  0.89369595  0.21624242     0.00860
C731        C  0.08465673  0.93174941  0.18942604    -0.11320
C732        C  0.08201418  0.93374634  0.13778889     0.03350
C733        C  0.06963845  0.89641866  0.11329000    -0.10740
H734        H  0.04566674  0.82724505  0.20884993     0.08940
H735        H  0.10021305  0.95988615  0.20919629     0.06470
H736        H  0.06630512  0.89556493  0.07388625     0.06320
C737        C  0.12969319  0.55083498  0.10794143     0.03360
C738        C  0.12605234  0.54965360  0.05677069    -0.12790
C739        C  0.12640952  0.51510343  0.03713062     0.00860
C740        C  0.10085318  0.97697073  0.05832655    -0.11320
C741        C  0.09438304  0.97442544  0.10955896     0.03350
C742        C  0.10749869  0.51266981  0.13379515    -0.10740
H743        H  0.13842304  0.57773484  0.03467401     0.08940
H744        H  0.09779639  0.95072093  0.03791035     0.06470
H745        H  0.10259640  0.51290553  0.17239941     0.06320
C746        C  0.15371065  0.69778380  0.15304689     0.03360
C747        C  0.15433535  0.71105401  0.20103699    -0.12790
C748        C  0.12482180  0.68492994  0.23485818     0.00860
C749        C  0.09211305  0.64719256  0.21729426    -0.11320
C750        C  0.09013544  0.63525357  0.16864606     0.03350
C751        C  0.12508531  0.65752084  0.14081873    -0.10740
H752        H  0.17765934  0.74110929  0.21178494     0.08940
H753        H  0.06756642  0.62680738  0.24051690     0.06470
H754        H  0.12711550  0.64490244  0.10612522     0.06320
C755        C  0.22335828  0.65646567  0.12837960     0.03360
C756        C  0.22145773  0.65816813  0.18033646    -0.12790
C757        C  0.19411233  0.62290862  0.20783528     0.00860
C758        C  0.17100417  0.58669426  0.18237157    -0.11320
C759        C  0.16449195  0.58718776  0.13183887     0.03350
C760        C  0.19390697  0.62096481  0.10493115    -0.10740
H761        H  0.23980467  0.68701847  0.19837107     0.08940
H762        H  0.15762045  0.55780591  0.20239937     0.06470
H763        H  0.19423796  0.62041638  0.06548098     0.06320
C764        C  0.04959304  0.60987317  0.14167647     0.03360
C765        C  0.04640780  0.62333008  0.09306039    -0.12790
C766        C  0.50871555  0.61851418  0.07370203     0.00860
C767        C  0.47281819  0.58860226  0.09260019    -0.11320
C768        C  0.47271570  0.57078513  0.13948578     0.03350
C769        C  0.51201741  0.58237107  0.16476563    -0.10740
H770        H  0.07269900  0.64717867  0.07489086     0.08940
H771        H  0.44469687  0.58726753  0.07506498     0.06470
H772        H  0.51343179  0.57231294  0.20242858     0.06320
O773        O  0.19892508  0.67036334  0.56255868    -0.80660
O774        O  0.34196922  0.81720531  0.49504889    -0.65350
O775        O  0.23409884  0.74886768  0.53218344    -1.11950
C776        C  0.22728289  0.68602825  0.37804044     1.06230
O777        O  0.31351347  0.82660626  0.42429757    -0.78560
O778        O  0.23580606  0.77428226  0.37515421    -0.66140
Ni779      Ni  0.22335734  0.72277349  0.59532926     1.34870
C780        C  0.20131609  0.75334104  0.39538519     0.84960
O781        O  0.29772317  0.81470753  0.57302370    -0.79100
O782        O  0.24860242  0.77583389  0.62722196    -0.89370
C783        C  0.34384025  0.83832691  0.45626772     0.84530
O784        O  0.27423936  0.71921946  0.61509085    -0.67580
O785        O  0.26087526  0.71741025  0.36561989    -0.86860
C786        C  0.30919948  0.74223996  0.59720474     0.85360
C787        C  0.28121684  0.80851777  0.61534651     1.06930
H788        H  0.29173832  0.73064820  0.46424360     0.38740
O789        O  0.27672004  0.74731667  0.46029841    -1.09520
O790        O  0.20093046  0.74878483  0.44176364    -0.66180
Ni791      Ni  0.22191575  0.71423721  0.47641221     1.26350
O792        O  0.31133202  0.74903205  0.55100780    -0.66400
O793        O  0.21175583  0.68138250  0.42043621    -0.78700
C794        C  0.16597030  0.66100912  0.53557832     0.84750
O795        O  0.16774660  0.68072828  0.49594686    -0.65870
Ni796      Ni  0.28719204  0.77168594  0.39572181     1.27450
Ni797      Ni  0.28854687  0.78228920  0.51596406     1.26060
H798        H  0.21884178  0.76535008  0.52898322     0.39290
C799        C  0.30356012  0.84069696  0.65212978     0.03360
C800        C  0.34011183  0.87457459  0.63777916    -0.12790
C801        C  0.35767603  0.91074821  0.66485530     0.00860
C802        C  0.34296474  0.90869685  0.71219630    -0.11320
C803        C  0.31309518  0.87067070  0.73305210     0.03350
C804        C  0.29149505  0.83757811  0.70117542    -0.10740
H805        H  0.35322467  0.87439494  0.60273163     0.08940
H806        H  0.35411023  0.93715165  0.73208568     0.06470
H807        H  0.26640837  0.80934956  0.71421075     0.06320
C808        C  0.34520312  0.76877855  0.63022376     0.03360
C809        C  0.34226292  0.76951053  0.68219240    -0.12790
C810        C  0.37178527  0.80328369  0.70955092     0.00860
C811        C  0.40097346  0.83709758  0.68346719    -0.11320
C812        C  0.40771140  0.83496422  0.63439589     0.03350
C813        C  0.38025408  0.80001541  0.60805424    -0.10740
H814        H  0.31658410  0.74494066  0.70039508     0.08940
H815        H  0.41935312  0.86604560  0.70133450     0.06470
H816        H  0.38488506  0.79769599  0.56952525     0.06320
C817        C  0.38247625  0.95115900  0.63807347     0.03360
C818        C  0.36984415  0.95356686  0.58917104    -0.12790
C819        C  0.37474115  0.99092853  0.56912289     0.00860
C820        C  0.40422937  0.52729319  0.58804898    -0.11320
C821        C  0.42213167  0.52793767  0.63506734     0.03350
C822        C  0.40984941  0.48880468  0.66099536    -0.10740
H823        H  0.34610644  0.92676766  0.57147664     0.08940
H824        H  0.40527764  0.55506783  0.57008366     0.06470
H825        H  0.41908993  0.48720694  0.69896646     0.06320
C826        C  0.45265236  0.64216254  0.65120098     0.03360
C827        C  0.44561483  0.64140553  0.70214002    -0.12790
C828        C  0.44143849  0.60654779  0.73247023     0.00860
C829        C  0.44304771  0.57251858  0.70989214    -0.11320
C830        C  0.44226316  0.56967159  0.65911404     0.03350
C831        C  0.45263891  0.60660327  0.63117280    -0.10740
H832        H  0.44433993  0.66800046  0.71772412     0.08940
H833        H  0.44383716  0.54721456  0.73142186     0.06470
H834        H  0.45895543  0.60717273  0.59256906     0.06320
C835        C  0.07311545  0.74115276  0.64407726     0.03360
C836        C  0.09434502  0.72102309  0.62283193    -0.12790
C837        C  0.10751900  0.69494334  0.65077517     0.00860
C838        C  0.10508402  0.69482705  0.70184808    -0.11320
C839        C  0.08272150  0.71285499  0.72527376     0.03350
C840        C  0.06679791  0.73630351  0.69569308    -0.10740
H841        H  0.09868326  0.72426137  0.58361037     0.08940
H842        H  0.11944792  0.67881742  0.72359976     0.06470
H843        H  0.04796206  0.74890605  0.71208057     0.06320
C844        C  0.11925599  0.66440749  0.62695084     0.03360
C845        C  0.10747765  0.65327690  0.57755065    -0.12790
C846        C  0.12572756  0.63176651  0.55437894     0.00860
C847        C  0.12986016  0.60096063  0.58286574    -0.11320
C848        C  0.14815336  0.61288942  0.62960704     0.03350
C849        C  0.14253320  0.64545284  0.65203464    -0.10740
H850        H  0.09129967  0.66702177  0.55473862     0.08940
H851        H  0.13260372  0.57639527  0.56398659     0.06470
H852        H  0.15798679  0.65765003  0.68653499     0.06320
C853        C  0.22172018  0.56051645  0.63918952     0.03360
C854        C  0.19817215  0.58054054  0.61914488    -0.12790
C855        C  0.17759797  0.59633924  0.64952685     0.00860
C856        C  0.18430757  0.59555015  0.69979113    -0.11320
C857        C  0.20462919  0.57358902  0.72233625     0.03350
C858        C  0.22405947  0.55642514  0.69164950    -0.10740
H859        H  0.19539518  0.58304901  0.57957502     0.08940
H860        H  0.17191815  0.61128871  0.72204513     0.06470
H861        H  0.23939940  0.53877227  0.70819764     0.06320
C862        C  0.13426804  0.92731220  0.63637495     0.03360
C863        C  0.09537876  0.91588347  0.61336153    -0.12790
C864        C  0.06274370  0.91816078  0.63770469     0.00860
C865        C  0.06952612  0.93016254  0.68672329    -0.11320
C866        C  0.10586414  0.93467958  0.71384092     0.03350
C867        C  0.13896104  0.93469176  0.68735835    -0.10740
H868        H  0.09173443  0.90674552  0.57545735     0.08940
H869        H  0.04576947  0.93578313  0.70344518     0.06470
H870        H  0.16869248  0.94211634  0.70524798     0.06320
C871        C  0.44501498  0.86845759  0.61210862     0.03360
C872        C  0.44554927  0.87429905  0.56100204    -0.12790
C873        C  0.48114550  0.87786071  0.53943698     0.00860
C874        C  0.01792046  0.90642816  0.56079307    -0.11320
C875        C  0.02129636  0.90638346  0.61259645     0.03350
C876        C  0.48378038  0.88605216  0.63859868    -0.10740
H877        H  0.41693970  0.86111145  0.53959902     0.08940
H878        H  0.04490580  0.91958432  0.53821345     0.06470
H879        H  0.48511453  0.87986507  0.67771018     0.06320
C880        C  0.45036203  0.87480554  0.86305270     0.03360
C881        C  0.45282548  0.86312010  0.91233858    -0.12790
C882        C  0.99075128  0.87117758  0.93408953     0.00860
C883        C  0.02653311  0.90163736  0.91499903    -0.11320
C884        C  0.02656830  0.91626558  0.86658484     0.03350
C885        C  0.98759265  0.90280028  0.84040083    -0.10740
H886        H  0.42639713  0.83842501  0.92944323     0.08940
H887        H  0.05510654  0.90540461  0.93368545     0.06470
H888        H  0.98633201  0.91181587  0.80219791     0.06320
C889        C  0.23575944  0.57171951  0.85924572     0.03360
C890        C  0.23476686  0.56651506  0.80779590    -0.12790
C891        C  0.20331471  0.56995500  0.77777418     0.00860
C892        C  0.17056451  0.57373450  0.80133252    -0.11320
C893        C  0.17398695  0.58491361  0.85032657     0.03350
C894        C  0.20794200  0.58507701  0.87859854    -0.10740
H895        H  0.25783686  0.55937454  0.79163577     0.08940
H896        H  0.14260354  0.56972139  0.78096311     0.06470
H897        H  0.21191414  0.59344835  0.91676875     0.06320
C898        C  0.14304002  0.95868737  0.85006724     0.03360
C899        C  0.14437134  0.95342348  0.79886688    -0.12790
C900        C  0.10749734  0.93929513  0.76898775     0.00860
C901        C  0.06964290  0.92655926  0.79282168    -0.11320
C902        C  0.06764926  0.93502608  0.84185341     0.03350
C903        C  0.10527424  0.95379851  0.86923034    -0.10740
H904        H  0.17389489  0.96067413  0.78299164     0.08940
H905        H  0.04110143  0.90753854  0.77375371     0.06470
H906        H  0.10485189  0.96166497  0.90710007     0.06320
C907        C  0.26608879  0.83758080  0.86311303     0.03360
C908        C  0.27066631  0.83608693  0.81154057    -0.12790
C909        C  0.30574525  0.86716783  0.78747973     0.00860
C910        C  0.33698379  0.89618302  0.81679216    -0.11320
C911        C  0.33048038  0.90207089  0.86487876     0.03350
C912        C  0.29456328  0.87294664  0.88790247    -0.10740
H913        H  0.24802897  0.81034545  0.79133050     0.08940
H914        H  0.36700669  0.91572538  0.80208631     0.06470
H915        H  0.28935334  0.87679419  0.92581775     0.06320
C916        C  0.33972200  0.79525981  0.84337125     0.03360
C917        C  0.37381355  0.83069718  0.86063686    -0.12790
C918        C  0.41081975  0.84895837  0.83534157     0.00860
C919        C  0.41047258  0.83538607  0.78788540    -0.11320
C920        C  0.37311433  0.80700277  0.76443195     0.03350
C921        C  0.33839466  0.78486787  0.79382897    -0.10740
H922        H  0.37275997  0.84280784  0.89606014     0.08940
H923        H  0.43956431  0.84694885  0.76926397     0.06470
H924        H  0.31027731  0.76106917  0.77836649     0.06320
C925        C  0.36049267  0.94045810  0.88889543     0.03360
C926        C  0.36563560  0.94111639  0.94010706    -0.12790
C927        C  0.37381112  0.97817472  0.96175325     0.00860
C928        C  0.40346052  0.51339642  0.93883594    -0.11320
C929        C  0.40001982  0.51686130  0.88718122     0.03350
C930        C  0.37762598  0.97898418  0.86215126    -0.10740
H931        H  0.35096585  0.91288343  0.96179795     0.08940
H932        H  0.42002555  0.53995832  0.96139576     0.06470
H933        H  0.36999613  0.97903782  0.82343956     0.06320
C934        C  0.43635473  0.63391068  0.86663752     0.03360
C935        C  0.44293523  0.63830689  0.81560653    -0.12790
C936        C  0.43343478  0.60329383  0.78692828     0.00860
C937        C  0.41689572  0.56391308  0.81105829    -0.11320
C938        C  0.41343713  0.55894706  0.86223438     0.03350
C939        C  0.42180369  0.59450670  0.88924248    -0.10740
H940        H  0.45705143  0.66905784  0.79913927     0.08940
H941        H  0.40641503  0.53655096  0.78995569     0.06470
H942        H  0.41679750  0.59234773  0.92827674     0.06320
C943        C  0.06673216  0.72180454  0.86420448     0.03360
C944        C  0.07776794  0.69065455  0.88209178    -0.12790
C945        C  0.08207704  0.66249517  0.85032244     0.00860
C946        C  0.07715617  0.66774399  0.80006189    -0.11320
C947        C  0.07513526  0.70369593  0.77979769     0.03350
C948        C  0.06751378  0.72955234  0.81233820    -0.10740
H949        H  0.08144974  0.68786502  0.92143235     0.08940
H950        H  0.07618394  0.64372140  0.77667769     0.06470
H951        H  0.06170516  0.75500009  0.79766206     0.06320
C952        C  0.14220021  0.59600379  0.87201115     0.03360
C953        C  0.13676402  0.59153710  0.92317482    -0.12790
C954        C  0.12098129  0.61570531  0.94491163     0.00860
C955        C  0.08799497  0.61817563  0.91962804    -0.11320
C956        C  0.09412905  0.62933290  0.86971644     0.03350
C957        C  0.12138368  0.61691834  0.84484478    -0.10740
H958        H  0.15274342  0.57798653  0.94661941     0.08940
H959        H  0.06696967  0.62511393  0.94056288     0.06470
H960        H  0.12884883  0.62613435  0.80681315     0.06320
O961        O  0.68371214  0.50743712  0.07272778    -0.80660
O962        O  0.81337533  0.46605872  0.00376669    -0.65350
O963        O  0.75848740  0.02895682  0.03322791    -1.11950
C964        C  0.68001813  0.46957732  0.88458892     1.06230
O965        O  0.82196468  0.99766057  0.93015684    -0.78560
O966        O  0.77509206  0.03345394  0.87847270    -0.66140
Ni967      Ni  0.74029343  0.02840258  0.09767676     1.34870
C968        C  0.75807765  0.05482905  0.89434351     0.84960
O969        O  0.82333389  0.01676944  0.07671633    -0.79100
O970        O  0.79656205  0.04804431  0.12506507    -0.89370
C971        C  0.83448697  0.48090605  0.96596781     0.84530
O972        O  0.73316652  0.47547032  0.12451061    -0.67580
O973        O  0.70993295  0.46095544  0.87367772    -0.86860
C974        C  0.74517743  0.45048246  0.10712899     0.85360
C975        C  0.82448954  0.03615057  0.11572860     1.06930
H976        H  0.72747201  0.44807664  0.97365827     0.38740
O977        O  0.74626416  0.47666328  0.96704141    -1.09520
O978        O  0.75322205  0.05543634  0.94015947    -0.66180
Ni979      Ni  0.71872513  0.50844687  0.97968056     1.26350
O980        O  0.75001269  0.45007413  0.06113389    -0.66400
O981        O  0.67993337  0.48724188  0.92467085    -0.78700
C982        C  0.66891903  0.02041663  0.03550355     0.84750
O983        O  0.69007123  0.03763451  0.99840263    -0.65870
Ni984      Ni  0.76580642  0.47901967  0.90288678     1.27450
Ni985      Ni  0.78539717  0.99650750  0.02128394     1.26060
H986        H  0.77749839  0.05731447  0.02580914     0.39290
O987        O  0.66445757  0.18700430  0.92431128    -0.80660
O988        O  0.81240948  0.33404306  0.99570852    -0.65350
O989        O  0.74351385  0.22564885  0.95968756    -1.11950
C990        C  0.68355820  0.22268420  0.11495455     1.06230
O991        O  0.82117581  0.30103987  0.06170626    -0.78560
O992        O  0.77015854  0.22847487  0.11606220    -0.66140
Ni993      Ni  0.71911487  0.21420113  0.89521761     1.34870
C994        C  0.74837997  0.19389048  0.09679584     0.84960
O995        O  0.81022222  0.28937979  0.91971955    -0.79100
O996        O  0.77329528  0.24016269  0.86518555    -0.89370
C997        C  0.83292577  0.33392214  0.03432439     0.84530
O998        O  0.71619346  0.26561946  0.87470949    -0.67580
O999        O  0.71558302  0.25627258  0.12598348    -0.86860
C1000       C  0.73829292  0.30049301  0.89385896     0.85360
C1001       C  0.80561179  0.27282450  0.87788857     1.06930
H1002       H  0.72630066  0.28468252  0.02745888     0.38740
O1003       O  0.74252970  0.26918362  0.03095552    -1.09520
O1004       O  0.74263886  0.19265327  0.05048945    -0.66180
Ni1005     Ni  0.70891961  0.21469574  0.01543810     1.26350
O1006       O  0.74333542  0.30186796  0.94022691    -0.66400
O1007       O  0.67699383  0.20621986  0.07256558    -0.78700
C1008       C  0.65445550  0.15669565  0.95613776     0.84750
O1009       O  0.67458998  0.16075208  0.99611622    -0.65870
Ni1010     Ni  0.76873299  0.27970158  0.09416172     1.27450
Ni1011     Ni  0.77728118  0.28033717  0.97552502     1.26060
H1012       H  0.75998335  0.21043736  0.96394429     0.39290
O1013       O  0.81728792  0.00300493  0.58270316    -0.80660
O1014       O  0.67001049  0.51027140  0.48906043    -0.65230
O1015       O  0.74338214  0.46731391  0.53338208    -1.11950
C1016       C  0.82216653  0.04459871  0.39557927     1.06230
O1017       O  0.67467727  0.48767992  0.41583449    -0.78560
O1018       O  0.73462741  0.46858547  0.37640703    -0.66140
Ni1019     Ni  0.76035577  0.47009255  0.60053341     1.34870
C1020       C  0.75469268  0.44969854  0.39515923     0.84960
O1021       O  0.66766718  0.45791484  0.56313745    -0.79100
O1022       O  0.70365905  0.43856335  0.62061437    -0.89370
C1023       C  0.65695323  0.50127613  0.44540104     0.84530
O1024       O  0.75472247  0.01692966  0.62413397    -0.67580
O1025       O  0.78922483  0.04640532  0.37795486    -0.86860
C1026       C  0.73614256  0.03724317  0.60532691     0.85360
C1027       C  0.67058042  0.44087267  0.60454017     1.06930
H1028       H  0.76050782  0.04888652  0.47456553     0.38740
O1029       O  0.74780401  0.02004538  0.46607079    -1.09520
O1030       O  0.76415128  0.45150676  0.44117894    -0.66180
Ni1031     Ni  0.78432878  0.99772673  0.48565112     1.26350
O1032       O  0.72653382  0.03555226  0.55928550    -0.66400
O1033       O  0.82421160  0.02865881  0.43777450    -0.78700
C1034       C  0.83631364  0.99125321  0.55269828     0.84750
O1035       O  0.82094686  0.47744402  0.51121112    -0.65870
Ni1036     Ni  0.73197606  0.01753612  0.39824392     1.27450
Ni1037     Ni  0.70672408  0.48944637  0.51425857     1.26060
H1038       H  0.73068248  0.43845502  0.52497230     0.39290
O1039       O  0.50805689  0.31699026  0.92220718    -0.80660
O1040       O  0.01934455  0.17157535  0.01516375    -0.65350
O1041       O  0.97416534  0.24258411  0.96954250    -1.11950
C1042       C  0.54796322  0.32128524  0.10898054     1.06230
O1043       O  0.99465304  0.17481000  0.08777605    -0.78560
O1044       O  0.97534518  0.23510385  0.12772607    -0.66140
Ni1045     Ni  0.97776816  0.26028503  0.90280894     1.34870
C1046       C  0.95499411  0.25341344  0.10815335     0.84960
O1047       O  0.96767445  0.16776920  0.93990024    -0.79100
O1048       O  0.94893856  0.20358746  0.88159276    -0.89370
C1049       C  0.00731535  0.15667542  0.05747848     0.84530
O1050       O  0.52666747  0.25810980  0.88053252    -0.67580
O1051       O  0.55235918  0.28949285  0.12585560    -0.86860
C1052       C  0.54626467  0.23869078  0.89887543     0.85360
C1053       C  0.95118873  0.17058562  0.89807824     1.06930
H1054       H  0.55561133  0.26221083  0.02964053     0.38740
O1055       O  0.52669991  0.24842801  0.03775038    -1.09520
O1056       O  0.95563539  0.26085901  0.06171480    -0.66180
Ni1057     Ni  0.50243386  0.28328158  0.01820941     1.26350
O1058       O  0.54440976  0.22862239  0.94480338    -0.66400
O1059       O  0.53110937  0.32253720  0.06714681    -0.78700
C1060       C  0.49384058  0.33434372  0.95144349     0.84750
O1061       O  0.48029753  0.31854046  0.99283460    -0.65870
Ni1062     Ni  0.52416984  0.23230883  0.10542434     1.27450
Ni1063     Ni  0.99775655  0.20727597  0.98913352     1.26060
H1064       H  0.94512269  0.22890058  0.97705322     0.39290
O1065       O  0.00192747  0.18236223  0.43224134    -0.80660
O1066       O  0.96313584  0.31480938  0.50023124    -0.65350
O1067       O  0.52369377  0.25776238  0.47022407    -1.11950
C1068       C  0.96211928  0.17929194  0.61751182     1.06230
O1069       O  0.99376560  0.32215925  0.57451142    -0.78560
O1070       O  0.52547231  0.27106503  0.62731664    -0.66140
Ni1071     Ni  0.52211344  0.23851204  0.40608379     1.34870
C1072       C  0.54935452  0.25749453  0.61007295     0.84960
O1073       O  0.51330853  0.32371532  0.42710676    -0.79100
O1074       O  0.54118786  0.29439710  0.37744110    -0.89370
C1075       C  0.97959614  0.33628836  0.53745061     0.84530
O1076       O  0.96830078  0.22981551  0.38069063    -0.67580
O1077       O  0.95219905  0.20843921  0.62812214    -0.86860
C1078       C  0.94558987  0.24526556  0.39656292     0.85360
C1079       C  0.53142390  0.32369235  0.38746683     1.06930
H1080       H  0.94269006  0.22778749  0.52863293     0.38740
O1081       O  0.97125114  0.24636106  0.53593235    -1.09520
O1082       O  0.54952537  0.25269140  0.56409646    -0.66180
Ni1083     Ni  0.00279323  0.21853762  0.52386480     1.26350
O1084       O  0.94517704  0.25111023  0.44226208    -0.66400
O1085       O  0.98125594  0.18034123  0.57840712    -0.78700
C1086       C  0.01719297  0.16892045  0.46851031     0.84750
O1087       O  0.53231683  0.18966877  0.50649581    -0.65870
Ni1088     Ni  0.97261734  0.26509761  0.60035989     1.27450
Ni1089     Ni  0.49212304  0.28562488  0.48223108     1.26060
H1090       H  0.55226682  0.27632554  0.47747533     0.39290
C1091       C  0.55425598  0.13925173  0.39079912     0.03360
C1092       C  0.55435945  0.13564090  0.44215041    -0.12790
C1093       C  0.51801223  0.12906143  0.46417987     0.00860
C1094       C  0.98125400  0.10024328  0.44312548    -0.11320
C1095       C  0.97773667  0.09816169  0.39135110     0.03350
C1096       C  0.51569453  0.11593350  0.36574910    -0.10740
H1097       H  0.58246889  0.15031485  0.46394224     0.08940
H1098       H  0.95476160  0.08940132  0.46615087     0.06470
H1099       H  0.51528403  0.11248406  0.32690043     0.06320
C1100       C  0.77310366  0.43009302  0.36138799     0.03360
C1101       C  0.80344561  0.41846161  0.38109487    -0.12790
C1102       C  0.83306866  0.41501806  0.35111212     0.00860
C1103       C  0.83023453  0.42157102  0.30072603    -0.11320
C1104       C  0.79506382  0.42381592  0.27829692     0.03350
C1105       C  0.76762617  0.43052986  0.30922899    -0.10740
H1106       H  0.80445956  0.41368003  0.42042816     0.08940
H1107       H  0.85556255  0.42369225  0.27892416     0.06470
H1108       H  0.74271841  0.43660738  0.29317555     0.06320
C1109       C  0.86004380  0.05959947  0.36583197     0.03360
C1110       C  0.89867971  0.07181529  0.39048363    -0.12790
C1111       C  0.93578993  0.08413366  0.36489998     0.00860
C1112       C  0.93245062  0.08551757  0.31330472    -0.11320
C1113       C  0.89407042  0.06730347  0.28751055     0.03350
C1114       C  0.85767080  0.05548571  0.31435970    -0.10740
H1115       H  0.89876020  0.07200978  0.42996454     0.08940
H1116       H  0.95975713  0.10128447  0.29229567     0.06470
H1117       H  0.82756616  0.04144802  0.29610201     0.06320
C1118       C  0.90354463  0.35887059  0.37192613     0.03360
C1119       C  0.88033788  0.37770448  0.34594535    -0.12790
C1120       C  0.86550509  0.40247490  0.37198469     0.00860
C1121       C  0.87493512  0.40677721  0.42263476    -0.11320
C1122       C  0.88232502  0.37573523  0.44624039     0.03350
C1123       C  0.90974770  0.36515510  0.42285124    -0.10740
H1124       H  0.87126839  0.37040152  0.30781627     0.08940
H1125       H  0.86523212  0.42499907  0.44491885     0.06470
H1126       H  0.92631589  0.35141688  0.44500404     0.06320
C1127       C  0.92671005  0.26511327  0.36080593     0.03360
C1128       C  0.91330873  0.29306580  0.37920252    -0.12790
C1129       C  0.91388029  0.32670385  0.35025557     0.00860
C1130       C  0.92430254  0.32904245  0.30107052    -0.11320
C1131       C  0.92767697  0.29564471  0.27835293     0.03350
C1132       C  0.93139705  0.26490223  0.30939836    -0.10740
H1133       H  0.90517681  0.28990183  0.41743383     0.08940
H1134       H  0.92846380  0.35681901  0.28033177     0.06470
H1135       H  0.93861824  0.24156269  0.29413794     0.06320
C1136       C  0.54009005  0.35936934  0.35173534     0.03360
C1137       C  0.53655994  0.39450689  0.36754878    -0.12790
C1138       C  0.55055144  0.43140339  0.33875962     0.00860
C1139       C  0.55662196  0.42868014  0.28905405    -0.11320
C1140       C  0.55834723  0.39334394  0.26993628     0.03350
C1141       C  0.55125974  0.35912589  0.30254916    -0.10740
H1142       H  0.52676345  0.39461138  0.40462184     0.08940
H1143       H  0.56153196  0.45528089  0.26598780     0.06470
H1144       H  0.55390746  0.33225372  0.29003065     0.06320
C1145       C  0.61440049  0.04905145  0.35872881     0.03360
C1146       C  0.63104802  0.04537410  0.40529574    -0.12790
C1147       C  0.62166368  0.50723546  0.42692988     0.00860
C1148       C  0.58856030  0.47257333  0.40993333    -0.11320
C1149       C  0.57066589  0.47289900  0.36318473     0.03350
C1150       C  0.58364897  0.51211493  0.33745992    -0.10740
H1151       H  0.65829373  0.07072803  0.42031186     0.08940
H1152       H  0.58431110  0.44395367  0.42869274     0.06470
H1153       H  0.57203075  0.51368052  0.30056258     0.06320
C1154       C  0.66268931  0.22795760  0.36532508     0.03360
C1155       C  0.62683332  0.20078321  0.39037354    -0.12790
C1156       C  0.59136686  0.17178809  0.36512394     0.00860
C1157       C  0.59046120  0.17611098  0.31420847    -0.11320
C1158       C  0.62655014  0.19648665  0.28776813     0.03350
C1159       C  0.66303323  0.22365222  0.31362967    -0.10740
H1160       H  0.62718329  0.20282588  0.42970714     0.08940
H1161       H  0.56146493  0.16315935  0.29425029     0.06470
H1162       H  0.69171236  0.23997631  0.29449573     0.06320
C1163       C  0.70129363  0.15420465  0.34216623     0.03360
C1164       C  0.71228698  0.15366188  0.29334671    -0.12790
C1165       C  0.68506670  0.12277333  0.26146603     0.00860
C1166       C  0.64831739  0.09046197  0.28153571    -0.11320
C1167       C  0.63888738  0.08922747  0.33091468     0.03350
C1168       C  0.66235386  0.12452451  0.35777206    -0.10740
H1169       H  0.74142636  0.17726164  0.28053887     0.08940
H1170       H  0.62664204  0.06542867  0.25988252     0.06470
H1171       H  0.65170854  0.12617181  0.39392753     0.06320
C1172       C  0.76064398  0.42642273  0.14143936     0.03360
C1173       C  0.76448794  0.43247063  0.19309609    -0.12790
C1174       C  0.78815692  0.41727231  0.22334952     0.00860
C1175       C  0.80793717  0.39632559  0.20034880    -0.11320
C1176       C  0.80784189  0.39349223  0.14933015     0.03350
C1177       C  0.78131678  0.40560669  0.12083849    -0.10740
H1178       H  0.75090671  0.45062268  0.20904360     0.08940
H1179       H  0.82487683  0.38297129  0.22215399     0.06470
H1180       H  0.77843397  0.40100857  0.08161654     0.06320
C1181       C  0.85985675  0.04357378  0.15143472     0.03360
C1182       C  0.89449541  0.03947664  0.13509202    -0.12790
C1183       C  0.93128570  0.05205055  0.16394169     0.00860
C1184       C  0.92864373  0.05694908  0.21397890    -0.11320
C1185       C  0.89352421  0.05882500  0.23358240     0.03350
C1186       C  0.85962528  0.05346777  0.20114006    -0.10740
H1187       H  0.89433246  0.03026717  0.09764938     0.08940
H1188       H  0.95495188  0.06060396  0.23711618     0.06470
H1189       H  0.83305094  0.05638657  0.21429062     0.06320
C1190       C  0.83804198  0.38145160  0.12574458     0.03360
C1191       C  0.85003417  0.39414707  0.07687557    -0.12790
C1192       C  0.86680940  0.37226215  0.05190711     0.00860
C1193       C  0.89597035  0.36365602  0.07879765    -0.11320
C1194       C  0.88495094  0.34726001  0.12658965     0.03350
C1195       C  0.85457559  0.35583141  0.14989226    -0.10740
H1196       H  0.83858268  0.41307490  0.05543700     0.08940
H1197       H  0.91812545  0.35777226  0.05870349     0.06470
H1198       H  0.84198056  0.34087126  0.18445248     0.06320
C1199       C  0.93346558  0.27055783  0.14101779     0.03360
C1200       C  0.93866846  0.27054582  0.19347706    -0.12790
C1201       C  0.92376406  0.29288998  0.22288350     0.00860
C1202       C  0.90321302  0.31403533  0.19891800    -0.11320
C1203       C  0.90080828  0.31781219  0.14826810     0.03350
C1204       C  0.91441721  0.29450816  0.11940411    -0.10740
H1205       H  0.95541994  0.25460258  0.21086827     0.08940
H1206       H  0.88935429  0.32894572  0.22013656     0.06470
H1207       H  0.91100699  0.29550161  0.07978066     0.06320
C1208       C  0.56104477  0.35890387  0.13858439     0.03360
C1209       C  0.55786219  0.35712457  0.19014387    -0.12790
C1210       C  0.56777284  0.39368617  0.21622130     0.00860
C1211       C  0.58463989  0.43174197  0.18941138    -0.11320
C1212       C  0.58198075  0.43374441  0.13777629     0.03350
C1213       C  0.56957067  0.39641619  0.11326720    -0.10740
H1214       H  0.54562632  0.32723478  0.20881639     0.08940
H1215       H  0.60021379  0.45987597  0.20918421     0.06470
H1216       H  0.56620777  0.39556729  0.07386438     0.06320
C1217       C  0.62966819  0.05081521  0.10792665     0.03360
C1218       C  0.62602820  0.04962775  0.05675599    -0.12790
C1219       C  0.62638652  0.01507650  0.03712055     0.00860
C1220       C  0.60086196  0.47697652  0.05833017    -0.11320
C1221       C  0.59436993  0.47442871  0.10955633     0.03350
C1222       C  0.60748389  0.01265046  0.13378694    -0.10740
H1223       H  0.63839330  0.07770634  0.03465382     0.08940
H1224       H  0.59782335  0.45072629  0.03792639     0.06470
H1225       H  0.60258097  0.01288935  0.17238986     0.06320
C1226       C  0.65368686  0.19782404  0.15302323     0.03360
C1227       C  0.65431361  0.21110142  0.20100970    -0.12790
C1228       C  0.62480324  0.18498064  0.23483492     0.00860
C1229       C  0.59209385  0.14724040  0.21727772    -0.11320
C1230       C  0.59011837  0.13529246  0.16863350     0.03350
C1231       C  0.62506770  0.15755647  0.14080567    -0.10740
H1232       H  0.67763635  0.24115913  0.21175236     0.08940
H1233       H  0.56754655  0.12686017  0.24050334     0.06470
H1234       H  0.62710024  0.14493192  0.10611750     0.06320
C1235       C  0.72330474  0.15646991  0.12835708     0.03360
C1236       C  0.72139968  0.15817680  0.18031295    -0.12790
C1237       C  0.69405709  0.12291812  0.20781464     0.00860
C1238       C  0.67095839  0.08669881  0.18235651    -0.11320
C1239       C  0.66445203  0.08718217  0.13182162     0.03350
C1240       C  0.69386067  0.12096317  0.10491109    -0.10740
H1241       H  0.73974080  0.18702997  0.19834483     0.08940
H1242       H  0.65757994  0.05781414  0.20239218     0.06470
H1243       H  0.69419396  0.12041298  0.06546098     0.06320
C1244       C  0.54957909  0.10990462  0.14166343     0.03360
C1245       C  0.54639392  0.12335298  0.09304281    -0.12790
C1246       C  0.00874506  0.11851742  0.07365252     0.00860
C1247       C  0.97283276  0.08863992  0.09256426    -0.11320
C1248       C  0.97271666  0.07083028  0.13945816     0.03350
C1249       C  0.01201311  0.08240050  0.16474265    -0.10740
H1250       H  0.57268337  0.14720414  0.07487318     0.08940
H1251       H  0.94472103  0.08733389  0.07503282     0.06470
H1252       H  0.01341913  0.07235929  0.20241459     0.06320
O1253       O  0.69888573  0.17038397  0.56254998    -0.80660
O1254       O  0.84196464  0.31719200  0.49503053    -0.65350
O1255       O  0.73408350  0.24889058  0.53216196    -1.11950
C1256       C  0.72723737  0.18603325  0.37802283     1.06230
O1257       O  0.81352018  0.32660272  0.42427554    -0.78560
O1258       O  0.73580230  0.27430572  0.37513614    -0.66140
Ni1259     Ni  0.72333171  0.22280038  0.59530877     1.34870
C1260       C  0.70130921  0.25337360  0.39536445     0.84960
O1261       O  0.79772453  0.31472035  0.57300197    -0.79100
O1262       O  0.74858890  0.27586395  0.62719310    -0.89370
C1263       C  0.84384650  0.33831307  0.45624607     0.84530
O1264       O  0.77420471  0.21923125  0.61507949    -0.67580
O1265       O  0.76083637  0.21740693  0.36560192    -0.86860
C1266       C  0.80916777  0.24223841  0.59719144     0.85360
C1267       C  0.78121270  0.30853942  0.61532089     1.06930
H1268       H  0.79170426  0.23063964  0.46422744     0.38740
O1269       O  0.77669571  0.24731733  0.46028008    -1.09520
O1270       O  0.70091939  0.24881597  0.44174292    -0.66180
Ni1271     Ni  0.72188745  0.21425530  0.47639451     1.26350
O1272       O  0.81130169  0.24902377  0.55099345    -0.66400
O1273       O  0.71171201  0.18139449  0.42041894    -0.78700
C1274       C  0.66593643  0.16103171  0.53555925     0.84750
O1275       O  0.66771660  0.18076123  0.49593446    -0.65870
Ni1276     Ni  0.78717571  0.27168257  0.39570220     1.27450
Ni1277     Ni  0.78853620  0.28229504  0.51594404     1.26060
H1278       H  0.71883639  0.26538249  0.52895902     0.39290
C1279       C  0.80355799  0.34071715  0.65210562     0.03360
C1280       C  0.84011598  0.37459051  0.63776155    -0.12790
C1281       C  0.85768465  0.41076223  0.66484270     0.00860
C1282       C  0.84296610  0.40871137  0.71217955    -0.11320
C1283       C  0.81308813  0.37068769  0.73302962     0.03350
C1284       C  0.79148687  0.33759878  0.70114893    -0.10740
H1285       H  0.85323161  0.37440787  0.60271710     0.08940
H1286       H  0.85411307  0.43716549  0.73207049     0.06470
H1287       H  0.76639448  0.30937278  0.71417994     0.06320
C1288       C  0.84517547  0.26877233  0.63020836     0.03360
C1289       C  0.84223403  0.26951257  0.68217570    -0.12790
C1290       C  0.87176265  0.30328382  0.70953140     0.00860
C1291       C  0.90096005  0.33708821  0.68344481    -0.11320
C1292       C  0.90770017  0.33494397  0.63437642     0.03350
C1293       C  0.88023421  0.29999722  0.60803772    -0.10740
H1294       H  0.81654921  0.24495052  0.70037885     0.08940
H1295       H  0.91934573  0.36603689  0.70130755     0.06470
H1296       H  0.88486543  0.29767012  0.56951068     0.06320
C1297       C  0.88249771  0.45117508  0.63807067     0.03360
C1298       C  0.86987849  0.45359204  0.58916478    -0.12790
C1299       C  0.87475898  0.49095477  0.56913682     0.00860
C1300       C  0.90422353  0.02727254  0.58804684    -0.11320
C1301       C  0.92215887  0.02791400  0.63504375     0.03350
C1302       C  0.90989229  0.98878243  0.66096916    -0.10740
H1303       H  0.84615286  0.42679433  0.57145509     0.08940
H1304       H  0.90528263  0.05505268  0.57008440     0.06470
H1305       H  0.91917815  0.98718432  0.69892192     0.06320
C1306       C  0.95269699  0.14213790  0.65116908     0.03360
C1307       C  0.94566609  0.14138400  0.70210987    -0.12790
C1308       C  0.94149242  0.10652793  0.73244228     0.00860
C1309       C  0.94309004  0.07249347  0.70986510    -0.11320
C1310       C  0.94230957  0.06964766  0.65908689     0.03350
C1311       C  0.95268728  0.10657921  0.63114359    -0.10740
H1312       H  0.94439404  0.16798031  0.71769408     0.08940
H1313       H  0.94386348  0.04718310  0.73139677     0.06470
H1314       H  0.95899823  0.10714476  0.59253820     0.06320
C1315       C  0.57306803  0.24113110  0.64405053     0.03360
C1316       C  0.59429434  0.22099889  0.62280540    -0.12790
C1317       C  0.60745599  0.19490952  0.65074697     0.00860
C1318       C  0.60501278  0.19478529  0.70181918    -0.11320
C1319       C  0.58265779  0.21282157  0.72524441     0.03350
C1320       C  0.56674504  0.23627883  0.69566446    -0.10740
H1321       H  0.59863923  0.22424282  0.58358503     0.08940
H1322       H  0.61936789  0.17876685  0.72356951     0.06470
H1323       H  0.54791336  0.24888675  0.71205082     0.06320
C1324       C  0.61919459  0.16437725  0.62691946     0.03360
C1325       C  0.60742416  0.15325653  0.57751567    -0.12790
C1326       C  0.62569274  0.13176769  0.55433705     0.00860
C1327       C  0.62983004  0.10095753  0.58281100    -0.11320
C1328       C  0.64810375  0.11286931  0.62956490     0.03350
C1329       C  0.64247112  0.14542165  0.65200150    -0.10740
H1330       H  0.59124301  0.16700042  0.55470772     0.08940
H1331       H  0.63258605  0.07640348  0.56392150     0.06470
H1332       H  0.65791632  0.15761147  0.68650808     0.06320
C1333       C  0.72168662  0.06051635  0.63916483     0.03360
C1334       C  0.69813385  0.08053347  0.61911682    -0.12790
C1335       C  0.67754312  0.09631591  0.64949445     0.00860
C1336       C  0.68423689  0.09551451  0.69976190    -0.11320
C1337       C  0.70457460  0.07356955  0.72231104     0.03350
C1338       C  0.72402063  0.05642116  0.69162518    -0.10740
H1339       H  0.69536768  0.08305027  0.57954673     0.08940
H1340       H  0.67183063  0.11123915  0.72201253     0.06470
H1341       H  0.73937062  0.03877807  0.70817396     0.06320
C1342       C  0.63426882  0.42730917  0.63638960     0.03360
C1343       C  0.59538079  0.41587469  0.61337027    -0.12790
C1344       C  0.56274074  0.41814903  0.63770513     0.00860
C1345       C  0.56951657  0.43015024  0.68672526    -0.11320
C1346       C  0.60585374  0.43467219  0.71385057     0.03350
C1347       C  0.63895567  0.43468931  0.68737306    -0.10740
H1348       H  0.59174207  0.40673602  0.57546695     0.08940
H1349       H  0.54575708  0.43577009  0.70344038     0.06470
H1350       H  0.66868665  0.44211870  0.70526620     0.06320
C1351       C  0.94501422  0.36842388  0.61209096     0.03360
C1352       C  0.94555677  0.37426421  0.56098404    -0.12790
C1353       C  0.98115842  0.37783272  0.53942667     0.00860
C1354       C  0.51792672  0.40641338  0.56078012    -0.11320
C1355       C  0.52129682  0.40637362  0.61258472     0.03350
C1356       C  0.98377551  0.38601418  0.63859044    -0.10740
H1357       H  0.91695094  0.36107745  0.53957392     0.08940
H1358       H  0.54491432  0.41955893  0.53820396     0.06470
H1359       H  0.98510226  0.37982651  0.67770269     0.06320
C1360       C  0.95034217  0.37479505  0.86304304     0.03360
C1361       C  0.95280115  0.36309941  0.91232572    -0.12790
C1362       C  0.49070696  0.37117919  0.93407329     0.00860
C1363       C  0.52649745  0.40163457  0.91499445    -0.11320
C1364       C  0.52654515  0.41627298  0.86658327     0.03350
C1365       C  0.48757309  0.40282409  0.84039207    -0.10740
H1366       H  0.92637344  0.33839497  0.92941979     0.08940
H1367       H  0.55506536  0.40538804  0.93368426     0.06470
H1368       H  0.48632140  0.41184608  0.80219000     0.06320
C1369       C  0.73572745  0.07172287  0.85922057     0.03360
C1370       C  0.73472740  0.06651094  0.80777087    -0.12790
C1371       C  0.70326821  0.06994243  0.77775173     0.00860
C1372       C  0.67051925  0.07372085  0.80131525    -0.11320
C1373       C  0.67394805  0.08490897  0.85030663     0.03350
C1374       C  0.70790801  0.08507817  0.87857456    -0.10740
H1375       H  0.75779806  0.05937263  0.79160889     0.08940
H1376       H  0.64255244  0.06969787  0.78095307     0.06470
H1377       H  0.71188530  0.09345615  0.91674254     0.06320
C1378       C  0.64302159  0.45867229  0.85008544     0.03360
C1379       C  0.64435454  0.45341101  0.79888382    -0.12790
C1380       C  0.60748310  0.43929016  0.76899882     0.00860
C1381       C  0.56962765  0.42656257  0.79282826    -0.11320
C1382       C  0.56763148  0.43502540  0.84186121     0.03350
C1383       C  0.60525513  0.45378532  0.86924600    -0.10740
H1384       H  0.67387833  0.46065719  0.78301227     0.08940
H1385       H  0.54108566  0.40754863  0.77375727     0.06470
H1386       H  0.60483127  0.46164562  0.90711802     0.06320
C1387       C  0.76606940  0.33759627  0.86308573     0.03360
C1388       C  0.77064944  0.33610417  0.81151324    -0.12790
C1389       C  0.80573268  0.36718332  0.78745632     0.00860
C1390       C  0.83697208  0.39619389  0.81677280    -0.11320
C1391       C  0.83046829  0.40207890  0.86485982     0.03350
C1392       C  0.79454689  0.37295857  0.88787872    -0.10740
H1393       H  0.74801114  0.31036523  0.79130040     0.08940
H1394       H  0.86699731  0.41573390  0.80207123     0.06470
H1395       H  0.78933723  0.37680582  0.92579435     0.06320
C1396       C  0.83969549  0.29526589  0.84334992     0.03360
C1397       C  0.87379143  0.33069740  0.86062082    -0.12790
C1398       C  0.91079881  0.34895631  0.83532695     0.00860
C1399       C  0.91044977  0.33538863  0.78786760    -0.11320
C1400       C  0.87309003  0.30700900  0.76441178     0.03350
C1401       C  0.83836816  0.28487732  0.79380675    -0.10740
H1402       H  0.87274066  0.34280420  0.89604776     0.08940
H1403       H  0.93954227  0.34694907  0.76924844     0.06470
H1404       H  0.81024926  0.26108216  0.77834272     0.06320
C1405       C  0.86048612  0.44045908  0.88888402     0.03360
C1406       C  0.86563171  0.44110583  0.94009503    -0.12790
C1407       C  0.87380149  0.47815736  0.96175439     0.00860
C1408       C  0.90349622  0.01340927  0.93884630    -0.11320
C1409       C  0.90009024  0.01686397  0.88718694     0.03350
C1410       C  0.87761990  0.47899029  0.86215121    -0.10740
H1411       H  0.85096248  0.41286757  0.96177690     0.08940
H1412       H  0.92005577  0.03996852  0.96141005     0.06470
H1413       H  0.86999084  0.47904975  0.82344007     0.06320
C1414       C  0.93648397  0.13392214  0.86661237     0.03360
C1415       C  0.94304182  0.13830628  0.81557785    -0.12790
C1416       C  0.93350973  0.10328423  0.78690488     0.00860
C1417       C  0.91696151  0.06390607  0.81104389    -0.11320
C1418       C  0.91353013  0.05894997  0.86222525     0.03350
C1419       C  0.92193303  0.09452271  0.88922690    -0.10740
H1420       H  0.95715903  0.16905374  0.79910124     0.08940
H1421       H  0.90644795  0.03654142  0.78994063     0.06470
H1422       H  0.91694405  0.09238027  0.92826294     0.06320
C1423       C  0.56667959  0.22179202  0.86417083     0.03360
C1424       C  0.57771712  0.19064410  0.88206323    -0.12790
C1425       C  0.58202297  0.16247938  0.85029862     0.00860
C1426       C  0.57709219  0.16771790  0.80003858    -0.11320
C1427       C  0.57507200  0.20366812  0.77976822     0.03350
C1428       C  0.56745582  0.22953131  0.81230367    -0.10740
H1429       H  0.58140422  0.18786134  0.92140390     0.08940
H1430       H  0.57611424  0.14368972  0.77665996     0.06470
H1431       H  0.56164811  0.25497847  0.79762350     0.06320
C1432       C  0.64216262  0.09600242  0.87199239     0.03360
C1433       C  0.63673618  0.09154847  0.92315799    -0.12790
C1434       C  0.62094850  0.11571492  0.94488967     0.00860
C1435       C  0.58795612  0.11817419  0.91960932    -0.11320
C1436       C  0.59408259  0.12932292  0.86969574     0.03350
C1437       C  0.62133683  0.11690730  0.84482337    -0.10740
H1438       H  0.65272357  0.07800801  0.94660531     0.08940
H1439       H  0.56693148  0.12511327  0.94054448     0.06470
H1440       H  0.62879414  0.12611532  0.80678828     0.06320
O1441       O  0.68369707  0.00739403  0.07270019    -0.80660
O1442       O  0.81341192  0.96608827  0.00376243    -0.65350
O1443       O  0.75848691  0.52896090  0.03323375    -1.11950
C1444       C  0.68006215  0.96958529  0.88456255     1.06230
O1445       O  0.82191832  0.49761106  0.93014791    -0.78560
O1446       O  0.77505318  0.53341770  0.87847111    -0.66140
Ni1447     Ni  0.74031134  0.52842941  0.09768744     1.34870
C1448       C  0.75805986  0.55481138  0.89434478     0.84960
O1449       O  0.82333125  0.51675747  0.07671811    -0.79100
O1450       O  0.79658278  0.54805735  0.12506219    -0.89370
C1451       C  0.83452769  0.98094295  0.96596836     0.84530
O1452       O  0.73316467  0.97544636  0.12449180    -0.67580
O1453       O  0.70998788  0.96098042  0.87365066    -0.86860
C1454       C  0.74519429  0.95047321  0.10710941     0.85360
C1455       C  0.82450072  0.53615053  0.11572649     1.06930
H1456       H  0.72750958  0.94808606  0.97363132     0.38740
O1457       O  0.74629554  0.97667643  0.96702435    -1.09520
O1458       O  0.75321307  0.55542747  0.94016136    -0.66180
Ni1459     Ni  0.71873859  0.00844273  0.97966511     1.26350
O1460       O  0.75003605  0.95007362  0.06111443    -0.66400
O1461       O  0.67996322  0.98723813  0.92464749    -0.78700
C1462       C  0.66893120  0.52044903  0.03552445     0.84750
O1463       O  0.69008010  0.53765951  0.99841941    -0.65870
Ni1464     Ni  0.76585744  0.97905635  0.90287563     1.27450
Ni1465     Ni  0.78537925  0.49649510  0.02129139     1.26060
H1466       H  0.77750362  0.55731463  0.02580536     0.39290
O1467       O  0.66446143  0.68699813  0.92432994    -0.80660
O1468       O  0.81242359  0.83401924  0.99572258    -0.65350
O1469       O  0.74352069  0.72562908  0.95969953    -1.11950
C1470       C  0.68356872  0.72265436  0.11497303     1.06230
O1471       O  0.82119318  0.80102285  0.06172662    -0.78560
O1472       O  0.77017718  0.72844854  0.11607175    -0.66140
Ni1473     Ni  0.71911745  0.71418711  0.89523147     1.34870
C1474       C  0.74839247  0.69386564  0.09680508     0.84960
O1475       O  0.81022954  0.78935543  0.91973183    -0.79100
O1476       O  0.77329645  0.74014184  0.86519614    -0.89370
C1477       C  0.83294229  0.83390135  0.03433694     0.84530
O1478       O  0.71620620  0.76561092  0.87472571    -0.67580
O1479       O  0.71559621  0.75624029  0.12600399    -0.86860
C1480       C  0.73830905  0.80048314  0.89387648     0.85360
C1481       C  0.80561509  0.77280175  0.87789901     1.06930
H1482       H  0.72631536  0.78466170  0.02747892     0.38740
O1483       O  0.74254310  0.76916148  0.03097344    -1.09520
O1484       O  0.74265107  0.69263092  0.05049847    -0.66180
Ni1485     Ni  0.70892955  0.71467415  0.01545288     1.26350
O1486       O  0.74335283  0.80185566  0.94024457    -0.66400
O1487       O  0.67700418  0.70619284  0.07258273    -0.78700
C1488       C  0.65445727  0.65668541  0.95615100     0.84750
O1489       O  0.67459649  0.66073360  0.99612474    -0.65870
Ni1490     Ni  0.76874718  0.77967563  0.09418037     1.27450
Ni1491     Ni  0.77729209  0.78031509  0.97553966     1.26060
H1492       H  0.75998835  0.71041532  0.96395144     0.39290
O1493       O  0.81729090  0.50303217  0.58271079    -0.80660
O1494       O  0.67000270  0.01024046  0.48905018    -0.65230
O1495       O  0.74338454  0.96729104  0.53336191    -1.11950
C1496       C  0.82216472  0.54458052  0.39557890     1.06230
O1497       O  0.67467829  0.98765423  0.41582610    -0.78560
O1498       O  0.73464553  0.96858924  0.37638660    -0.66140
Ni1499     Ni  0.76035153  0.97005760  0.60051504     1.34870
C1500       C  0.75470890  0.94970024  0.39513876     0.84960
O1501       O  0.66766217  0.95787589  0.56311381    -0.79100
O1502       O  0.70365351  0.93852078  0.62058685    -0.89370
C1503       C  0.65695231  0.00125214  0.44538716     0.84530
O1504       O  0.75473349  0.51697185  0.62413936    -0.67580
O1505       O  0.78922714  0.54639504  0.37795243    -0.86860
C1506       C  0.73615328  0.53728410  0.60532939     0.85360
C1507       C  0.67057549  0.94083237  0.60451475     1.06930
H1508       H  0.76051609  0.54890250  0.47456643     0.38740
O1509       O  0.74780638  0.52005999  0.46607750    -1.09520
O1510       O  0.76416684  0.95150704  0.44115812    -0.66180
Ni1511     Ni  0.78432409  0.49773356  0.48566338     1.26350
O1512       O  0.72654345  0.53558894  0.55928840    -0.66400
O1513       O  0.82420552  0.52864818  0.43778011    -0.78700
C1514       C  0.83631049  0.49126844  0.55271134     0.84750
O1515       O  0.82095719  0.97744140  0.51119145    -0.65870
Ni1516     Ni  0.73197719  0.51754492  0.39824990     1.27450
Ni1517     Ni  0.70672074  0.98941833  0.51424377     1.26060
H1518       H  0.73068997  0.93843407  0.52494369     0.39290
O1519       O  0.50805939  0.81698687  0.92224466    -0.80660
O1520       O  0.01939756  0.67158616  0.01519063    -0.65350
O1521       O  0.97420757  0.74258353  0.96956559    -1.11950
C1522       C  0.54799221  0.82126123  0.10901085     1.06230
O1523       O  0.99470076  0.67481042  0.08780500    -0.78560
O1524       O  0.97536366  0.73508899  0.12774456    -0.66140
Ni1525     Ni  0.97781511  0.76028751  0.90283409     1.34870
C1526       C  0.95501749  0.75340355  0.10817111     0.84960
O1527       O  0.96773123  0.66777647  0.93991837    -0.79100
O1528       O  0.94898294  0.70359150  0.88161813    -0.89370
C1529       C  0.00736261  0.65667946  0.05750128     0.84530
O1530       O  0.52657553  0.75805156  0.88055519    -0.67580
O1531       O  0.55234723  0.78944851  0.12589164    -0.86860
C1532       C  0.54617119  0.73863104  0.89889794     0.85360
C1533       C  0.95123806  0.67059129  0.89810039     1.06930
H1534       H  0.55555576  0.76214055  0.02966313     0.38740
O1535       O  0.52664489  0.74838507  0.03778032    -1.09520
O1536       O  0.95566471  0.76085442  0.06173323    -0.66180
Ni1537     Ni  0.50242805  0.78328147  0.01824751     1.26350
O1538       O  0.54430092  0.72854383  0.94482126    -0.66400
O1539       O  0.53114827  0.82252924  0.06717551    -0.78700
C1540       C  0.49387825  0.83437001  0.95148473     0.84750
O1541       O  0.48033956  0.81858261  0.99288288    -0.65870
Ni1542     Ni  0.52411153  0.73226695  0.10545679     1.27450
Ni1543     Ni  0.99780463  0.70728150  0.98915865     1.26060
H1544       H  0.94516437  0.72889622  0.97707291     0.39290
O1545       O  0.00198582  0.68238868  0.43223984    -0.80660
O1546       O  0.96313771  0.81479319  0.50025380    -0.65350
O1547       O  0.52366611  0.75777852  0.47025393    -1.11950
C1548       C  0.96215130  0.67929364  0.61753143     1.06230
O1549       O  0.99377979  0.82216242  0.57452855    -0.78560
O1550       O  0.52546547  0.77109928  0.62734849    -0.66140
Ni1551     Ni  0.52206695  0.73851133  0.40611784     1.34870
C1552       C  0.54934231  0.75752295  0.61010255     0.84960
O1553       O  0.51329230  0.82373428  0.42712801    -0.79100
O1554       O  0.54114645  0.79439238  0.37746053    -0.89370
C1555       C  0.97959763  0.83627983  0.53746696     0.84530
O1556       O  0.96834597  0.72983418  0.38070419    -0.67580
O1557       O  0.95223518  0.70844295  0.62814531    -0.86860
C1558       C  0.94562368  0.74527025  0.39657866     0.85360
C1559       C  0.53139612  0.82369739  0.38748404     1.06930
H1560       H  0.94271733  0.72778567  0.52865769     0.38740
O1561       O  0.97127800  0.74636166  0.53595537    -1.09520
O1562       O  0.54950657  0.75271565  0.56412608    -0.66180
Ni1563     Ni  0.00282494  0.71854425  0.52388403     1.26350
O1564       O  0.94520354  0.75110530  0.44227959    -0.66400
O1565       O  0.98128483  0.68034125  0.57842341    -0.78700
C1566       C  0.01723095  0.66893688  0.46851922     0.84750
O1567       O  0.53227933  0.68968347  0.50653912    -0.65870
Ni1568     Ni  0.97264601  0.76510018  0.60038238     1.27450
Ni1569     Ni  0.49210740  0.78565434  0.48226068     1.26060
H1570       H  0.55224198  0.77633744  0.47749735     0.39290
C1571       C  0.55426217  0.63928780  0.39083638     0.03360
C1572       C  0.55436416  0.63569537  0.44218936    -0.12790
C1573       C  0.51800755  0.62908886  0.46421542     0.00860
C1574       C  0.98124429  0.60025984  0.44315672    -0.11320
C1575       C  0.97773453  0.59812804  0.39138455     0.03350
C1576       C  0.51570440  0.61595361  0.36578790    -0.10740
H1577       H  0.58246953  0.65038830  0.46398274     0.08940
H1578       H  0.95475036  0.58948693  0.46617091     0.06470
H1579       H  0.51529688  0.61249988  0.32694146     0.06320
C1580       C  0.77311840  0.93009185  0.36136975     0.03360
C1581       C  0.80345431  0.91845357  0.38108146    -0.12790
C1582       C  0.83307985  0.91500908  0.35110448     0.00860
C1583       C  0.83025201  0.92156505  0.30071786    -0.11320
C1584       C  0.79508535  0.92381543  0.27828255     0.03350
C1585       C  0.76764683  0.93053212  0.30921028    -0.10740
H1586       H  0.80446272  0.91366855  0.42041461     0.08940
H1587       H  0.85558254  0.92368594  0.27892116     0.06470
H1588       H  0.74274323  0.93661473  0.29315348     0.06320
C1589       C  0.86004501  0.55956927  0.36583468     0.03360
C1590       C  0.89867384  0.57175061  0.39049303    -0.12790
C1591       C  0.93579187  0.58409649  0.36491848     0.00860
C1592       C  0.93246313  0.58550529  0.31332193    -0.11320
C1593       C  0.89408527  0.56730315  0.28751504     0.03350
C1594       C  0.85768117  0.55548452  0.31435817    -0.10740
H1595       H  0.89874141  0.57189237  0.42997507     0.08940
H1596       H  0.95977691  0.60128355  0.29232564     0.06470
H1597       H  0.82757899  0.54146591  0.29609251     0.06320
C1598       C  0.90355891  0.85886499  0.37193583     0.03360
C1599       C  0.88035106  0.87769573  0.34595021    -0.12790
C1600       C  0.86551421  0.90246526  0.37198448     0.00860
C1601       C  0.87494068  0.90676927  0.42263547    -0.11320
C1602       C  0.88233367  0.87573052  0.44624572     0.03350
C1603       C  0.90975923  0.86515186  0.42286065    -0.10740
H1604       H  0.87128463  0.87039199  0.30782063     0.08940
H1605       H  0.86523398  0.92499016  0.44491626     0.06470
H1606       H  0.92632873  0.85141693  0.44501667     0.06320
C1607       C  0.92673965  0.76511522  0.36082270     0.03360
C1608       C  0.91333611  0.79306635  0.37921895    -0.12790
C1609       C  0.91390052  0.82670053  0.35026914     0.00860
C1610       C  0.92432116  0.82903786  0.30108362    -0.11320
C1611       C  0.92769893  0.79564145  0.27836733     0.03350
C1612       C  0.93142375  0.76490222  0.30941455    -0.10740
H1613       H  0.90520728  0.78990395  0.41745115     0.08940
H1614       H  0.92848019  0.85681342  0.28034432     0.06470
H1615       H  0.93864700  0.74156371  0.29415511     0.06320
C1616       C  0.54006348  0.85936898  0.35174414     0.03360
C1617       C  0.53653080  0.89450871  0.36754536    -0.12790
C1618       C  0.55052892  0.93140241  0.33875087     0.00860
C1619       C  0.55660130  0.92867202  0.28904768    -0.11320
C1620       C  0.55833111  0.89333349  0.26994182     0.03350
C1621       C  0.55124029  0.85911976  0.30256275    -0.10740
H1622       H  0.52673278  0.89462003  0.40461603     0.08940
H1623       H  0.56151252  0.95527074  0.26597658     0.06470
H1624       H  0.55389326  0.83224739  0.29005432     0.06320
C1625       C  0.61439188  0.54905423  0.35874755     0.03360
C1626       C  0.63102484  0.54538294  0.40532610    -0.12790
C1627       C  0.62167373  0.00722580  0.42690465     0.00860
C1628       C  0.58855936  0.97256982  0.40991545    -0.11320
C1629       C  0.57065838  0.97289938  0.36317171     0.03350
C1630       C  0.58364667  0.01211572  0.33744586    -0.10740
H1631       H  0.65825972  0.57074187  0.42035332     0.08940
H1632       H  0.58430148  0.94394812  0.42867640     0.06470
H1633       H  0.57202265  0.01368344  0.30055193     0.06320
C1634       C  0.66270461  0.72796482  0.36533619     0.03360
C1635       C  0.62684505  0.70080839  0.39039031    -0.12790
C1636       C  0.59137679  0.67180801  0.36514986     0.00860
C1637       C  0.59047583  0.67610670  0.31423077    -0.11320
C1638       C  0.62656656  0.69646965  0.28778960     0.03350
C1639       C  0.66304977  0.72364023  0.31364540    -0.10740
H1640       H  0.62719473  0.70286945  0.42972131     0.08940
H1641       H  0.56148097  0.66315153  0.29427071     0.06470
H1642       H  0.69173048  0.73995360  0.29451158     0.06320
C1643       C  0.70129913  0.65419853  0.34217193     0.03360
C1644       C  0.71229395  0.65364592  0.29335471    -0.12790
C1645       C  0.68507074  0.62275485  0.26147695     0.00860
C1646       C  0.64832045  0.59044911  0.28155159    -0.11320
C1647       C  0.63888795  0.58922485  0.33092777     0.03350
C1648       C  0.66235579  0.62452579  0.35777732    -0.10740
H1649       H  0.74143497  0.67724181  0.28054610     0.08940
H1650       H  0.62664227  0.56541388  0.25990481     0.06470
H1651       H  0.65170640  0.62618386  0.39392645     0.06320
C1652       C  0.76067185  0.92642229  0.14142037     0.03360
C1653       C  0.76451252  0.93246959  0.19307756    -0.12790
C1654       C  0.78818336  0.91727491  0.22333373     0.00860
C1655       C  0.80796681  0.89633062  0.20033543    -0.11320
C1656       C  0.80787558  0.89349794  0.14931725     0.03350
C1657       C  0.78135219  0.90561284  0.12082147    -0.10740
H1658       H  0.75092582  0.95061731  0.20902353     0.08940
H1659       H  0.82490456  0.88297590  0.22214281     0.06470
H1660       H  0.77847248  0.90101652  0.08159928     0.06320
C1661       C  0.85987223  0.54357647  0.15143121     0.03360
C1662       C  0.89451382  0.53948544  0.13508746    -0.12790
C1663       C  0.93130432  0.55205863  0.16393991     0.00860
C1664       C  0.92866434  0.55696463  0.21397659    -0.11320
C1665       C  0.89354292  0.55883482  0.23358156     0.03350
C1666       C  0.85964135  0.55347061  0.20113813    -0.10740
H1667       H  0.89435087  0.53027890  0.09764338     0.08940
H1668       H  0.95497540  0.56062851  0.23711290     0.06470
H1669       H  0.83306428  0.55638393  0.21428872     0.06320
C1670       C  0.83807482  0.88145227  0.12573801     0.03360
C1671       C  0.85006519  0.89413868  0.07686680    -0.12790
C1672       C  0.86683255  0.87224343  0.05190496     0.00860
C1673       C  0.89599448  0.86364025  0.07879685    -0.11320
C1674       C  0.88497895  0.84725406  0.12659317     0.03350
C1675       C  0.85460737  0.85583329  0.14989295    -0.10740
H1676       H  0.83861568  0.91306566  0.05542295     0.08940
H1677       H  0.91814752  0.85775252  0.05870380     0.06470
H1678       H  0.84201357  0.84087860  0.18445574     0.06320
C1679       C  0.93348823  0.77054835  0.14103407     0.03360
C1680       C  0.93869075  0.77053885  0.19349349    -0.12790
C1681       C  0.92378726  0.79288565  0.22289737     0.00860
C1682       C  0.90323876  0.81403243  0.19892824    -0.11320
C1683       C  0.90083423  0.81780623  0.14827772     0.03350
C1684       C  0.91444063  0.79449805  0.11941753    -0.10740
H1685       H  0.95544141  0.75459553  0.21088654     0.08940
H1686       H  0.88938064  0.82894508  0.22014372     0.06470
H1687       H  0.91102918  0.79548761  0.07979410     0.06320
C1688       C  0.56110132  0.85888582  0.13861178     0.03360
C1689       C  0.55787309  0.85710748  0.19016498    -0.12790
C1690       C  0.56777578  0.89367136  0.21623401     0.00860
C1691       C  0.58465502  0.93172598  0.18942367    -0.11320
C1692       C  0.58203655  0.93373058  0.13778559     0.03350
C1693       C  0.56967709  0.89640484  0.11328397    -0.10740
H1694       H  0.54560900  0.82721722  0.20883728     0.08940
H1695       H  0.60021047  0.95985760  0.20920197     0.06470
H1696       H  0.56638584  0.89555471  0.07387817     0.06320
C1697       C  0.62962909  0.55082453  0.10792161     0.03360
C1698       C  0.62600766  0.54963553  0.05675061    -0.12790
C1699       C  0.62639343  0.51509117  0.03713128     0.00860
C1700       C  0.60084632  0.97696691  0.05832386    -0.11320
C1701       C  0.59440884  0.97441605  0.10956425     0.03350
C1702       C  0.60742663  0.51266143  0.13377631    -0.10740
H1703       H  0.63837825  0.57771468  0.03465021     0.08940
H1704       H  0.59774268  0.95071608  0.03787800     0.06470
H1705       H  0.60250492  0.51289796  0.17237634     0.06320
C1706       C  0.65369346  0.69779531  0.15304085     0.03360
C1707       C  0.65433067  0.71106985  0.20103155    -0.12790
C1708       C  0.62481917  0.68495462  0.23485973     0.00860
C1709       C  0.59210412  0.64721668  0.21730729    -0.11320
C1710       C  0.59011461  0.63527316  0.16865950     0.03350
C1711       C  0.62505669  0.65753533  0.14081686    -0.10740
H1712       H  0.67766065  0.74112410  0.21177363     0.08940
H1713       H  0.56755764  0.62683888  0.24053631     0.06470
H1714       H  0.62706300  0.64491962  0.10611045     0.06320
C1715       C  0.72330693  0.65644762  0.12836527     0.03360
C1716       C  0.72140826  0.65815074  0.18032252    -0.12790
C1717       C  0.69405330  0.62289667  0.20782201     0.00860
C1718       C  0.67093205  0.58668486  0.18235698    -0.11320
C1719       C  0.66442593  0.58717800  0.13182269     0.03350
C1720       C  0.69384812  0.62095144  0.10491652    -0.10740
H1721       H  0.73976474  0.68699875  0.19835701     0.08940
H1722       H  0.65753677  0.55779640  0.20238260     0.06470
H1723       H  0.69418080  0.62040393  0.06546661     0.06320
C1724       C  0.54956545  0.60990233  0.14170115     0.03360
C1725       C  0.54636165  0.62339656  0.09310996    -0.12790
C1726       C  0.00877912  0.61851231  0.07366076     0.00860
C1727       C  0.97286099  0.58863940  0.09256654    -0.11320
C1728       C  0.97273692  0.57082601  0.13945920     0.03350
C1729       C  0.01203111  0.58238302  0.16474563    -0.10740
H1730       H  0.57263812  0.64729123  0.07496676     0.08940
H1731       H  0.94475300  0.58734305  0.07503486     0.06470
H1732       H  0.01343121  0.57233669  0.20241649     0.06320
O1733       O  0.69889086  0.67038871  0.56254241    -0.80660
O1734       O  0.84197553  0.81718523  0.49503651    -0.65350
O1735       O  0.73409277  0.74889104  0.53216767    -1.11950
C1736       C  0.72724323  0.68602987  0.37802689     1.06230
O1737       O  0.81353134  0.82659562  0.42428095    -0.78560
O1738       O  0.73581849  0.77430446  0.37513743    -0.66140
Ni1739     Ni  0.72333768  0.72279810  0.59531204     1.34870
C1740       C  0.70132603  0.75338142  0.39536999     0.84960
O1741       O  0.79773647  0.81471459  0.57301195    -0.79100
O1742       O  0.74859882  0.77585873  0.62720198    -0.89370
C1743       C  0.84385691  0.83830675  0.45625209     0.84530
O1744       O  0.77420574  0.71921951  0.61508147    -0.67580
O1745       O  0.76084656  0.71739942  0.36560833    -0.86860
C1746       C  0.80916981  0.74222513  0.59719554     0.85360
C1747       C  0.78122349  0.80853370  0.61533076     1.06930
H1748       H  0.79170744  0.73063044  0.46423515     0.38740
O1749       O  0.77670300  0.74731197  0.46028659    -1.09520
O1750       O  0.70093873  0.74882895  0.44174861    -0.66180
Ni1751     Ni  0.72189266  0.71425668  0.47639795     1.26350
O1752       O  0.81130573  0.74901313  0.55099817    -0.66400
O1753       O  0.71171415  0.68139687  0.42042020    -0.78700
C1754       C  0.66593733  0.66104392  0.53556292     0.84750
O1755       O  0.66771791  0.68076953  0.49593476    -0.65870
Ni1756     Ni  0.78718774  0.77167594  0.39570815     1.27450
Ni1757     Ni  0.78854626  0.78229039  0.51595108     1.26060
H1758       H  0.71884870  0.76538597  0.52896633     0.39290
C1759       C  0.80356658  0.84071182  0.65211614     0.03360
C1760       C  0.84012234  0.87458736  0.63777188    -0.12790
C1761       C  0.85768519  0.91076130  0.66484939     0.00860
C1762       C  0.84296547  0.90870998  0.71218612    -0.11320
C1763       C  0.81309235  0.87068407  0.73303887     0.03350
C1764       C  0.79149462  0.83759320  0.70115942    -0.10740
H1765       H  0.85324028  0.87440387  0.60272940     0.08940
H1766       H  0.85410855  0.93716459  0.73207541     0.06470
H1767       H  0.76640472  0.80936571  0.71419163     0.06320
C1768       C  0.84517612  0.76875674  0.63021414     0.03360
C1769       C  0.84223284  0.76949702  0.68218076    -0.12790
C1770       C  0.87175909  0.80326970  0.70953587     0.00860
C1771       C  0.90095457  0.83707595  0.68344904    -0.11320
C1772       C  0.90769553  0.83493211  0.63438078     0.03350
C1773       C  0.88023429  0.79998198  0.60804432    -0.10740
H1774       H  0.81654850  0.74493411  0.70038362     0.08940
H1775       H  0.91933678  0.86602567  0.70131134     0.06470
H1776       H  0.88486704  0.79765288  0.56951834     0.06320
C1777       C  0.88249564  0.95117349  0.63807314     0.03360
C1778       C  0.86988151  0.95358266  0.58916307    -0.12790
C1779       C  0.87476329  0.99094188  0.56912289     0.00860
C1780       C  0.90421988  0.52728217  0.58806738    -0.11320
C1781       C  0.92216329  0.52791445  0.63505707     0.03350
C1782       C  0.90989971  0.48877922  0.66097153    -0.10740
H1783       H  0.84615761  0.92678233  0.57145584     0.08940
H1784       H  0.90527690  0.55506670  0.57011854     0.06470
H1785       H  0.91919253  0.48717490  0.69892026     0.06320
C1786       C  0.95272483  0.64213903  0.65118977     0.03360
C1787       C  0.94568540  0.64138439  0.70212891    -0.12790
C1788       C  0.94149574  0.60652338  0.73246154     0.00860
C1789       C  0.94308288  0.57248325  0.70988598    -0.11320
C1790       C  0.94231924  0.56964373  0.65910785     0.03350
C1791       C  0.95271302  0.60657874  0.63116684    -0.10740
H1792       H  0.94441791  0.66798328  0.71771230     0.08940
H1793       H  0.94383441  0.54716362  0.73141898     0.06470
H1794       H  0.95902761  0.60714262  0.59256254     0.06320
C1795       C  0.57305960  0.74116100  0.64407790     0.03360
C1796       C  0.59429672  0.72104066  0.62282997    -0.12790
C1797       C  0.60746990  0.69495826  0.65076882     0.00860
C1798       C  0.60502489  0.69482970  0.70184165    -0.11320
C1799       C  0.58265227  0.71284629  0.72526877     0.03350
C1800       C  0.56673134  0.73629835  0.69569113    -0.10740
H1801       H  0.59864161  0.72428848  0.58360961     0.08940
H1802       H  0.61939031  0.67882019  0.72359027     0.06470
H1803       H  0.54788896  0.74889354  0.71207790     0.06320
C1804       C  0.61921476  0.66443048  0.62693856     0.03360
C1805       C  0.60744242  0.65330761  0.57753530    -0.12790
C1806       C  0.62569395  0.63180001  0.55436090     0.00860
C1807       C  0.62982647  0.60099173  0.58284422    -0.11320
C1808       C  0.64811653  0.61291601  0.62958819     0.03350
C1809       C  0.64249184  0.64547490  0.65202046    -0.10740
H1810       H  0.59126620  0.66705538  0.55472521     0.08940
H1811       H  0.63257469  0.57643034  0.56396169     0.06470
H1812       H  0.65794155  0.65766813  0.68652394     0.06320
C1813       C  0.72169970  0.56056030  0.63916596     0.03360
C1814       C  0.69814459  0.58057747  0.61912280    -0.12790
C1815       C  0.67756363  0.59636766  0.64950679     0.00860
C1816       C  0.68427080  0.59557380  0.69977192    -0.11320
C1817       C  0.70459850  0.57361699  0.72231467     0.03350
C1818       C  0.72403696  0.55646431  0.69162530    -0.10740
H1819       H  0.69536845  0.58308779  0.57955303     0.08940
H1820       H  0.67187587  0.61130612  0.72202760     0.06470
H1821       H  0.73938206  0.53881552  0.70817101     0.06320
C1822       C  0.63426888  0.92727946  0.63636986     0.03360
C1823       C  0.59538029  0.91586934  0.61335926    -0.12790
C1824       C  0.56275606  0.91816469  0.63770686     0.00860
C1825       C  0.56954729  0.93016498  0.68672580    -0.11320
C1826       C  0.60588112  0.93466328  0.71383894     0.03350
C1827       C  0.63896786  0.93465706  0.68735371    -0.10740
H1828       H  0.59172838  0.90673350  0.57545359     0.08940
H1829       H  0.54579999  0.93579743  0.70345349     0.06470
H1830       H  0.66869685  0.94206669  0.70524247     0.06320
C1831       C  0.94500328  0.86841712  0.61209045     0.03360
C1832       C  0.94554259  0.87424809  0.56098252    -0.12790
C1833       C  0.98114603  0.87781977  0.53942785     0.00860
C1834       C  0.51792800  0.90645796  0.56080111    -0.11320
C1835       C  0.52130924  0.90640627  0.61260453     0.03350
C1836       C  0.98376566  0.88602275  0.63858597    -0.10740
H1837       H  0.91693694  0.86105333  0.53957379     0.08940
H1838       H  0.54491243  0.91960628  0.53821939     0.06470
H1839       H  0.98509712  0.87984344  0.67769968     0.06320
C1840       C  0.95033990  0.87477188  0.86304511     0.03360
C1841       C  0.95280868  0.86305617  0.91231708    -0.12790
C1842       C  0.49076346  0.87121246  0.93410451     0.00860
C1843       C  0.52655553  0.90164622  0.91500156    -0.11320
C1844       C  0.52659516  0.91626778  0.86658323     0.03350
C1845       C  0.48762020  0.90281092  0.84039952    -0.10740
H1846       H  0.92638754  0.83833573  0.92940231     0.08940
H1847       H  0.55512493  0.90539541  0.93368420     0.06470
H1848       H  0.48636285  0.91181433  0.80219140     0.06320
C1849       C  0.73572273  0.57172206  0.85922535     0.03360
C1850       C  0.73473193  0.56652579  0.80777375    -0.12790
C1851       C  0.70328270  0.56997469  0.77775285     0.00860
C1852       C  0.67053168  0.57375093  0.80131318    -0.11320
C1853       C  0.67395123  0.58492201  0.85030960     0.03350
C1854       C  0.70790397  0.58507768  0.87858137    -0.10740
H1855       H  0.75780232  0.55938719  0.79161153     0.08940
H1856       H  0.64257114  0.56974001  0.78094456     0.06470
H1857       H  0.71187481  0.59344408  0.91675310     0.06320
C1858       C  0.64306600  0.95867268  0.85006114     0.03360
C1859       C  0.64439505  0.95340673  0.79886083    -0.12790
C1860       C  0.60751910  0.93927726  0.76898526     0.00860
C1861       C  0.56966610  0.92654285  0.79282107    -0.11320
C1862       C  0.56767537  0.93501414  0.84185131     0.03350
C1863       C  0.60530104  0.95378478  0.86922621    -0.10740
H1864       H  0.67391761  0.96065787  0.78298222     0.08940
H1865       H  0.54112372  0.90752365  0.77375317     0.06470
H1866       H  0.60487964  0.96165287  0.90709551     0.06320
C1867       C  0.76608404  0.83758807  0.86310237     0.03360
C1868       C  0.77066067  0.83609665  0.81152823    -0.12790
C1869       C  0.80573943  0.86717906  0.78746697     0.00860
C1870       C  0.83697774  0.89619341  0.81678014    -0.11320
C1871       C  0.83047595  0.90207927  0.86486757     0.03350
C1872       C  0.79456094  0.87295285  0.88789326    -0.10740
H1873       H  0.74802337  0.81035590  0.79131696     0.08940
H1874       H  0.86700054  0.91573699  0.80207492     0.06470
H1875       H  0.78935518  0.87679849  0.92581086     0.06320
C1876       C  0.83969603  0.79524460  0.84335793     0.03360
C1877       C  0.87379237  0.83067524  0.86062959    -0.12790
C1878       C  0.91079631  0.84893759  0.83533107     0.00860
C1879       C  0.91044593  0.83537402  0.78787004    -0.11320
C1880       C  0.87308640  0.80699369  0.76441593     0.03350
C1881       C  0.83836609  0.78485920  0.79381274    -0.10740
H1882       H  0.87274789  0.84277695  0.89606246     0.08940
H1883       H  0.93953802  0.84693754  0.76924924     0.06470
H1884       H  0.81024704  0.76106384  0.77834921     0.06320
C1885       C  0.86049119  0.94046576  0.88888328     0.03360
C1886       C  0.86564749  0.94112091  0.94009364    -0.12790
C1887       C  0.87383467  0.97818015  0.96174652     0.00860
C1888       C  0.90346178  0.51339585  0.93886822    -0.11320
C1889       C  0.90007705  0.51685843  0.88720640     0.03350
C1890       C  0.87761987  0.97899364  0.86214158    -0.10740
H1891       H  0.85097997  0.91288675  0.96178387     0.08940
H1892       H  0.92000860  0.53994898  0.96144413     0.06470
H1893       H  0.86997819  0.97905171  0.82343323     0.06320
C1894       C  0.93652365  0.63392665  0.86663638     0.03360
C1895       C  0.94306963  0.63830811  0.81559966    -0.12790
C1896       C  0.93351343  0.60328297  0.78692430     0.00860
C1897       C  0.91694715  0.56390453  0.81106190    -0.11320
C1898       C  0.91353185  0.55894849  0.86224632     0.03350
C1899       C  0.92196490  0.59452715  0.88925155    -0.10740
H1900       H  0.95719546  0.66905494  0.79912230     0.08940
H1901       H  0.90640754  0.53654207  0.78995117     0.06470
H1902       H  0.91699040  0.59239131  0.92828993     0.06320
C1903       C  0.56661266  0.72175864  0.86419479     0.03360
C1904       C  0.57766985  0.69062314  0.88208355    -0.12790
C1905       C  0.58200878  0.66248000  0.85031423     0.00860
C1906       C  0.57709450  0.66773182  0.80005296    -0.11320
C1907       C  0.57505565  0.70367583  0.77979009     0.03350
C1908       C  0.56740422  0.72951352  0.81232971    -0.10740
H1909       H  0.58134700  0.68783356  0.92142459     0.08940
H1910       H  0.57613971  0.64371725  0.77666818     0.06470
H1911       H  0.56158110  0.75495269  0.79765415     0.06320
C1912       C  0.64216326  0.59601100  0.87199637     0.03360
C1913       C  0.63672814  0.59154207  0.92315981    -0.12790
C1914       C  0.62094503  0.61570850  0.94489931     0.00860
C1915       C  0.58795559  0.61817543  0.91962107    -0.11320
C1916       C  0.59408273  0.62933176  0.86970889     0.03350
C1917       C  0.62134112  0.61692294  0.84483330    -0.10740
H1918       H  0.65270787  0.57799083  0.94660287     0.08940
H1919       H  0.56692616  0.62510302  0.94056131     0.06470
H1920       H  0.62880221  0.62613841  0.80680080     0.06320
loop_ 
_geom_bond_atom_site_label_1 
_geom_bond_atom_site_label_2 
_geom_bond_distance 
_geom_bond_site_symmetry_2 
_ccdc_geom_bond_type 
O1         Ni487   1.937       .  S
O1          C502   1.288       .  A
O2         Ni505   1.865       .  S
O2           C11   1.259   1_554  A
O3           Ni7   1.893       .  S
O3          Ni25   1.855   1_545  S
O3         Ni499   1.924   1_554  S
O3           H26   0.966       .  S
C4           O21   1.284       .  A
C4           O13   1.290       .  A
C4          C418   1.507       .  S
O5         Ni504   1.949       .  S
O5          C491   1.291       .  A
O6         Ni504   1.929   1_545  S
O6            C8   1.268       .  A
Ni7          O10   1.952       .  S
Ni7         O481   1.937       .  S
Ni7         O492   1.923   1_545  S
C8           O18   1.268       .  A
C8          C409   1.497       .  S
O9          Ni25   1.927   1_545  S
O9           C15   1.282       .  A
O10          C15   1.288       .  A
C11         O485   1.291       .  A
C11         C447   1.467       .  S
O12        Ni487   1.923       .  S
O12          C14   1.267       .  A
O13         Ni24   1.963       .  S
C14          O20   1.272       .  A
C14         C212   1.496       .  S
C15         C221   1.500       .  S
H16          O17   0.966       .  S
O17         Ni19   1.857       .  S
O17         Ni24   1.893       .  S
O17        Ni505   1.923   1_556  S
O18        Ni499   1.919       .  S
Ni19         O21   1.937       .  S
Ni19        O498   1.919       .  S
Ni19        O503   1.858       .  S
Ni19        O483   1.924   1_556  S
O20        Ni505   1.922       .  S
C22          O23   1.258   1_554  A
C22         O481   1.288       .  A
C22         C259   1.457       .  S
O23        Ni499   1.858       .  S
Ni24        O485   1.949       .  S
Ni24        O486   1.929       .  S
Ni25        O482   1.865       .  S
Ni25        O500   1.922       .  S
Ni25        O497   1.923   1_554  S
O27         Ni33   1.957       .  S
O27          C48   1.294       .  A
O28         Ni51   1.877       .  S
O28          C37   1.259   1_556  A
O29         Ni33   1.905       .  S
O29         Ni51   1.861       .  S
O29         Ni45   1.919   1_556  S
O29          H52   0.966       .  S
C30          O47   1.283       .  A
C30          O39   1.288       .  A
C30         C266   1.485       .  S
O31         Ni50   1.934       .  S
O31          C37   1.285       .  A
O32         Ni50   1.934       .  S
O32          C34   1.266       .  A
Ni33         O36   1.953       .  S
Ni33         O38   1.954       .  S
C34          O44   1.268       .  A
C34         C275   1.507       .  S
O35         Ni51   1.893       .  S
O35          C41   1.276       .  A
O36          C41   1.287       .  A
C37         C232   1.466       .  S
O38          C40   1.274       .  A
O39         Ni50   1.944       .  S
C40          O46   1.267       .  A
C40         C427   1.514       .  S
C41         C436   1.485       .  S
H42          O43   0.966       .  S
O43         Ni51   1.914   1_554  S
O43         Ni45   1.853       .  S
O43         Ni50   1.895       .  S
O44         Ni45   1.920       .  S
Ni45         O49   1.870   1_554  S
Ni45         O47   1.905       .  S
O46         Ni51   1.917       .  S
C48          O49   1.258       .  A
C48         C474   1.473       .  S
O53        Ni539   1.935   1_545  S
O53          C74   1.280   1_545  A
O54         Ni77   1.875       .  S
O54          C63   1.260       .  A
O55         Ni59   1.894       .  S
O55         Ni77   1.861       .  S
O55        Ni551   1.920       .  S
O55          H78   0.966       .  S
C56          O73   1.276       .  A
C56          O65   1.285       .  A
C56         C149   1.488       .  S
O57        Ni556   1.931       .  S
O57          C63   1.279       .  A
O58        Ni556   1.922       .  S
O58          C60   1.269       .  A
Ni59         O62   1.939       .  S
Ni59        O533   1.935       .  S
Ni59        O544   1.920       .  S
C60          O70   1.280       .  A
C60         C140   1.512       .  S
O61         Ni77   1.915       .  S
O61          C67   1.283       .  A
O62          C67   1.285       .  A
C63         C187   1.442       .  S
O64        Ni539   1.920   1_545  S
O64          C66   1.268       .  A
O65         Ni76   1.949       .  S
C66          O72   1.282       .  A
C66         C373   1.516       .  S
C67         C382   1.482       .  S
H68          O69   0.966       .  S
O69         Ni71   1.864   1_545  S
O69         Ni76   1.902       .  S
O69        Ni557   1.933   1_545  S
O70        Ni551   1.946       .  S
Ni71         O73   1.906   1_565  S
Ni71        O550   1.946       .  S
Ni71        O555   1.862       .  S
Ni71        O535   1.920       .  S
O72        Ni557   1.954   1_545  S
C74         O555   1.257       .  A
C74         C819   1.438       .  S
O75        Ni551   1.862       .  S
O75         C554   1.257       .  A
Ni76        O537   1.931   1_545  S
Ni76        O538   1.922   1_545  S
Ni77        O552   1.954       .  S
Ni77        O549   1.933       .  S
O79       Ni1045   1.929   1_455  S
O79         C100   1.278   1_455  A
O80        Ni103   1.871   1_554  S
O80          C89   1.260       .  A
O81         Ni85   1.890       .  S
O81        Ni103   1.860       .  S
O81       Ni1057   1.917   1_556  S
O81         H104   0.966       .  S
C82          O99   1.275       .  A
C82          O91   1.285       .  A
C82         C248   1.483       .  S
O83       Ni1062   1.937       .  S
O83          C89   1.282       .  A
O84       Ni1062   1.924       .  S
O84          C86   1.269       .  A
Ni85         O88   1.939       .  S
Ni85       O1039   1.929       .  S
Ni85       O1050   1.916       .  S
C86          O96   1.280       .  A
C86         C239   1.515       .  S
O87        Ni103   1.916       .  S
O87          C93   1.282       .  A
O88          C93   1.286       .  A
C89         C286   1.445       .  S
O90       Ni1045   1.916   1_455  S
O90          C92   1.266       .  A
O91        Ni102   1.946       .  S
C92          O98   1.283       .  A
C92         C463   1.513       .  S
C93         C454   1.481       .  S
H94          O95   0.966       .  S
O95         Ni97   1.864       .  S
O95        Ni102   1.902       .  S
O95       Ni1063   1.929   1_454  S
O96       Ni1057   1.945       .  S
Ni97        O101   1.865   1_454  S
Ni97         O99   1.896       .  S
Ni97       O1056   1.945   1_455  S
Ni97       O1041   1.917   1_454  S
O98       Ni1063   1.955   1_455  S
C100        O101   1.257       .  A
C100        C402   1.437       .  S
Ni102      O1043   1.937   1_455  S
Ni102      O1044   1.924   1_455  S
Ni103      O1058   1.955       .  S
Ni103      O1055   1.929   1_556  S
O105      Ni1071   1.938       .  S
O105        C126   1.287       .  A
O106      Ni1089   1.860       .  S
O106        C115   1.259       .  A
O107       Ni111   1.892       .  S
O107       Ni129   1.856   1_455  S
O107      Ni1083   1.919       .  S
O107        H130   0.966       .  S
C108        O125   1.281       .  A
C108        O117   1.291       .  A
C108        C346   1.507       .  S
O109       Ni128   1.961       .  S
O109        C115   1.294       .  A
O110      Ni1088   1.932   1_455  S
O110        C112   1.269       .  A
Ni111       O114   1.957       .  S
Ni111      O1065   1.938       .  S
Ni111      O1076   1.921   1_455  S
C112        O122   1.270       .  A
C112        C355   1.501       .  S
O113       Ni129   1.930   1_455  S
O113        C119   1.283       .  A
O114        C119   1.288       .  A
C115        C393   1.473       .  S
O116      Ni1071   1.921       .  S
O116        C118   1.267       .  A
O117       Ni128   1.968       .  S
C118        O124   1.271       .  A
C118        C167   1.492       .  S
C119        C176   1.504       .  S
H120        O121   0.966       .  S
O121       Ni123   1.854       .  S
O121       Ni128   1.894       .  S
O121      Ni1089   1.921       .  S
O122      Ni1083   1.919       .  S
Ni123       O125   1.921       .  S
Ni123      O1082   1.919       .  S
Ni123      O1087   1.861       .  S
Ni123      O1067   1.919       .  S
O124      Ni1089   1.923       .  S
C126       O1087   1.258       .  A
C126       C1093   1.455       .  S
O127      Ni1083   1.861       .  S
O127       C1086   1.258       .  A
Ni128      O1070   1.932       .  S
Ni129      O1066   1.860       .  S
Ni129      O1084   1.923       .  S
Ni129      O1081   1.921       .  S
C131        C196   1.511       .  S
C131        C132   1.398       .  A
C131        C136   1.428       .  A
C132        C133   1.380       .  A
C132        H137   1.077       .  S
C133       C1086   1.455       .  S
C133       C1094   1.392   1_455  A
C134        C135   1.411       .  A
C134       C1093   1.391       .  A
C134        H138   1.075       .  S
C135        C151   1.523       .  S
C135       C1096   1.427       .  A
C136       C1095   1.427   1_455  A
C136        H139   1.068       .  S
C140        C141   1.408       .  A
C140        C145   1.425       .  A
C141        C142   1.417       .  A
C141        H146   1.079       .  S
C142        C160   1.505       .  S
C142        C143   1.389       .  A
C143        C144   1.413       .  A
C143        H147   1.080       .  S
C144        C214   1.516       .  S
C144        C145   1.425       .  A
C145        H148   1.081       .  S
C149        C150   1.408       .  A
C149        C154   1.409       .  A
C150        C151   1.412       .  A
C150        H155   1.074       .  S
C151        C152   1.405       .  A
C152        C153   1.411       .  A
C152        H156   1.070       .  S
C153        C225   1.508       .  S
C153        C154   1.412       .  A
C154        H157   1.082       .  S
C158        C169   1.507       .  S
C158        C159   1.435       .  A
C158        C163   1.406       .  A
C159        C160   1.440       .  A
C159        H164   1.082       .  S
C160        C161   1.404       .  A
C161        C162   1.384       .  A
C161        H165   1.080       .  S
C162        C303   1.474       .  S
C162        C163   1.385       .  A
C163        H166   1.079       .  S
C167        C168   1.405       .  A
C167        C172   1.416       .  A
C168        C169   1.409       .  A
C168        H173   1.080       .  S
C169        C170   1.394       .  A
C170        C171   1.425       .  A
C170        H174   1.081       .  S
C171        C241   1.513       .  S
C171        C172   1.413       .  A
C172        H175   1.082       .  S
C176        C177   1.409       .  A
C176        C181   1.414       .  A
C177        C178   1.412       .  A
C177        H182   1.083       .  S
C178        C189   1.512       .  S
C178        C179   1.393       .  A
C179        C180   1.418       .  A
C179        H183   1.074       .  S
C180        C250   1.512       .  S
C180        C181   1.422       .  A
C181        H184   1.080       .  S
C185        C207   1.514       .  S
C185        C186   1.405       .  A
C185        C670   1.431       .  A
C186        C667   1.374       .  A
C186        H191   1.083       .  S
C187        C188   1.374       .  A
C187        C666   1.374       .  A
C188        C189   1.403       .  A
C188        H192   1.081       .  S
C189        C190   1.438       .  A
C190        C665   1.431       .  A
C190        H193   1.080       .  S
C194        C300   1.512       .  S
C194        C195   1.414       .  A
C194        C199   1.422       .  A
C195        C196   1.417       .  A
C195        H200   1.075       .  S
C196        C197   1.388       .  A
C197        C198   1.393       .  A
C197        H201   1.071       .  S
C198        C268   1.505       .  S
C198        C199   1.424       .  A
C199        H202   1.081       .  S
C203        C296   1.487       .  S
C203        C204   1.405       .  A
C203        C208   1.409       .  A
C204        C205   1.414       .  A
C204        H209   1.081       .  S
C205        C277   1.507       .  S
C205        C206   1.436       .  A
C206        C207   1.393       .  A
C206        H210   1.075       .  S
C207        C208   1.394       .  A
C208        H211   1.083       .  S
C212        C213   1.423       .  A
C212        C217   1.407       .  A
C213        C214   1.418       .  A
C213        H218   1.082       .  S
C214        C215   1.416       .  A
C215        C216   1.396       .  A
C215        H219   1.075       .  S
C216        C230   1.505       .  S
C216        C217   1.404       .  A
C217        H220   1.080       .  S
C221        C222   1.407       .  A
C221        C226   1.413       .  A
C222        C223   1.410       .  A
C222        H227   1.083       .  S
C223        C288   1.511       .  S
C223        C224   1.392       .  A
C224        C225   1.419       .  A
C224        H228   1.075       .  S
C225        C226   1.421       .  A
C226        H229   1.081       .  S
C230        C231   1.410       .  A
C230        C235   1.424       .  A
C231        C232   1.391       .  A
C231        H236   1.079       .  S
C232        C233   1.389       .  A
C233        C234   1.404       .  A
C233        H237   1.081       .  S
C234        C243   1.497       .  S
C234        C235   1.433       .  A
C235        H238   1.077       .  S
C239        C240   1.432       .  A
C239        C244   1.412       .  A
C240        C241   1.426       .  A
C240        H245   1.082       .  S
C241        C242   1.399       .  A
C242        C243   1.382       .  A
C242        H246   1.072       .  S
C243        C244   1.414       .  A
C244        H247   1.081       .  S
C248        C249   1.409       .  A
C248        C253   1.403       .  A
C249        C250   1.415       .  A
C249        H254   1.081       .  S
C250        C251   1.415       .  A
C251        C252   1.405       .  A
C251        H255   1.072       .  S
C252        C261   1.515       .  S
C252        C253   1.403       .  A
C253        H256   1.074       .  S
C257        C279   1.506       .  S
C257        C258   1.393       .  A
C257        C262   1.424       .  A
C258        C259   1.377       .  A
C258        H263   1.077       .  S
C259        C740   1.391   1_545  A
C260        C261   1.415       .  A
C260        C739   1.391       .  A
C260        H264   1.076       .  S
C261        C742   1.424       .  A
C262        C741   1.424   1_545  A
C262        H265   1.073       .  S
C266        C267   1.404       .  A
C266        C271   1.405       .  A
C267        C268   1.413       .  A
C267        H272   1.081       .  S
C268        C269   1.436       .  A
C269        C270   1.397       .  A
C269        H273   1.077       .  S
C270        C284   1.516       .  S
C270        C271   1.394       .  A
C271        H274   1.082       .  S
C275        C276   1.423       .  A
C275        C280   1.409       .  A
C276        C277   1.425       .  A
C276        H281   1.081       .  S
C277        C278   1.395       .  A
C278        C279   1.386       .  A
C278        H282   1.071       .  S
C279        C280   1.414       .  A
C280        H283   1.075       .  S
C284        C285   1.407       .  A
C284       C1249   1.431       .  A
C285       C1246   1.371       .  A
C285        H290   1.081       .  S
C286        C287   1.373       .  A
C286       C1245   1.371       .  A
C287        C288   1.404       .  A
C287        H291   1.082       .  S
C288        C289   1.438       .  A
C289       C1244   1.431       .  A
C289        H292   1.079       .  S
O293       Ni299   1.934       .  S
O293        C314   1.286       .  A
O294       Ni317   1.874       .  S
O294        C303   1.261       .  A
O295       Ni299   1.895       .  S
O295       Ni317   1.855       .  S
O295       Ni311   1.914       .  S
O295        H318   0.967       .  S
C296        O313   1.275       .  A
C296        O305   1.288       .  A
O297       Ni316   1.957       .  S
O297        C303   1.293       .  A
O298       Ni316   1.947       .  S
O298        C300   1.270       .  A
Ni299       O302   1.942       .  S
Ni299       O304   1.940       .  S
C300        O310   1.266       .  A
O301       Ni317   1.909       .  S
O301        C307   1.284       .  A
O302        C307   1.287       .  A
O304        C306   1.269       .  A
O305       Ni316   1.956       .  S
C306        O312   1.270       .  A
C306        C328   1.512       .  S
C307        C319   1.483       .  S
H308        O309   0.966       .  S
O309       Ni317   1.920       .  S
O309       Ni311   1.862       .  S
O309       Ni316   1.908       .  S
O310       Ni311   1.914       .  S
Ni311       O315   1.873       .  S
Ni311       O313   1.889       .  S
O312       Ni317   1.925       .  S
C314        O315   1.255       .  A
C314        C366   1.466       .  S
C319        C320   1.403       .  A
C319        C324   1.405       .  A
C320        C321   1.398       .  A
C320        H325   1.082       .  S
C321        C337   1.508       .  S
C321        C322   1.399       .  A
C322        C323   1.432       .  A
C322        H326   1.081       .  S
C323        C429   1.506       .  S
C323        C324   1.411       .  A
C324        H327   1.080       .  S
C328        C329   1.424       .  A
C328        C333   1.409       .  A
C329        C330   1.427       .  A
C329        H334   1.081       .  S
C330        C440   1.501       .  S
C330        C331   1.400       .  A
C331        C332   1.378       .  A
C331        H335   1.081       .  S
C332        C391   1.488       .  S
C332        C333   1.413       .  A
C333        H336   1.080       .  S
C337        C338   1.399       .  A
C337        C822   1.428       .  A
C338        C339   1.369       .  A
C338        H343   1.083       .  S
C339        C554   1.439       .  S
C339        C820   1.376       .  A
C340        C341   1.404       .  A
C340        C819   1.376   1_545  A
C340        H344   1.080       .  S
C341        C350   1.515       .  S
C341        C342   1.441   1_545  A
C342        C817   1.428       .  A
C342        H345   1.079       .  S
C346        C347   1.416       .  A
C346        C351   1.409       .  A
C347        C348   1.427       .  A
C347        H352   1.081       .  S
C348        C456   1.511       .  S
C348        C349   1.415       .  A
C349        C350   1.388       .  A
C349        H353   1.072       .  S
C350        C351   1.411       .  A
C351        H354   1.081       .  S
C355        C356   1.411       .  A
C355        C360   1.423       .  A
C356        C357   1.407       .  A
C356        H361   1.079       .  S
C357        C364   1.512       .  S
C357        C358   1.396       .  A
C358        C359   1.415       .  A
C358        H362   1.074       .  S
C359        C467   1.516       .  S
C359        C360   1.419       .  A
C360        H363   1.082       .  S
C364        C365   1.412       .  A
C364        C369   1.429       .  A
C365        C366   1.393       .  A
C365        H370   1.078       .  S
C366        C367   1.383       .  A
C367        C368   1.400       .  A
C367        H371   1.082       .  S
C368        C375   1.497       .  S
C368        C369   1.434       .  A
C369        H372   1.076       .  S
C373        C374   1.411       .  A
C373        C378   1.432       .  A
C374        C375   1.416       .  A
C374        H379   1.081       .  S
C375        C376   1.380       .  A
C376        C377   1.400       .  A
C376        H380   1.074       .  S
C377        C411   1.510       .  S
C377        C378   1.425       .  A
C378        H381   1.082       .  S
C382        C383   1.400       .  A
C382        C387   1.412       .  A
C383        C384   1.404       .  A
C383        H388   1.080       .  S
C384        C395   1.500       .  S
C384        C385   1.397       .  A
C385        C386   1.421       .  A
C385        H389   1.080       .  S
C386        C420   1.512       .  S
C386        C387   1.415       .  A
C387        H390   1.080       .  S
C391        C392   1.397       .  A
C391        C396   1.429       .  A
C392        C393   1.382       .  A
C392        H397   1.080       .  S
C393       C1354   1.393       .  A
C394        C395   1.410       .  A
C394       C1353   1.393   1_455  A
C394        H398   1.080       .  S
C395       C1356   1.425   1_455  A
C396       C1355   1.425       .  A
C396        H399   1.082       .  S
C400        C438   1.505       .  S
C400        C401   1.400       .  A
C400       C1365   1.424       .  A
C401       C1362   1.376       .  A
C401        H406   1.083       .  S
C402        C403   1.379   1_655  A
C402       C1361   1.376       .  A
C403        C404   1.398       .  A
C403        H407   1.082       .  S
C404        C422   1.504       .  S
C404        C405   1.434   1_455  A
C405       C1360   1.424       .  A
C405        H408   1.081       .  S
C409        C410   1.417       .  A
C409        C414   1.410       .  A
C410        C411   1.413       .  A
C410        H415   1.082       .  S
C411        C412   1.422       .  A
C412        C413   1.393       .  A
C412        H416   1.082       .  S
C413        C472   1.511       .  S
C413        C414   1.413       .  A
C414        H417   1.079       .  S
C418        C419   1.419       .  A
C418        C423   1.409       .  A
C419        C420   1.425       .  A
C419        H424   1.080       .  S
C420        C421   1.409       .  A
C421        C422   1.392       .  A
C421        H425   1.077       .  S
C422        C423   1.413       .  A
C423        H426   1.082       .  S
C427        C428   1.425       .  A
C427        C432   1.412       .  A
C428        C429   1.430       .  A
C428        H433   1.080       .  S
C429        C430   1.398       .  A
C430        C431   1.379       .  A
C430        H434   1.081       .  S
C431        C445   1.486       .  S
C431        C432   1.410       .  A
C432        H435   1.081       .  S
C436        C437   1.408       .  A
C436        C441   1.406       .  A
C437        C438   1.396       .  A
C437        H442   1.082       .  S
C438        C439   1.396       .  A
C439        C440   1.427       .  A
C439        H443   1.081       .  S
C440        C441   1.412       .  A
C441        H444   1.081       .  S
C445        C446   1.398       .  A
C445        C450   1.428       .  A
C446        C447   1.384       .  A
C446        H451   1.080       .  S
C447        C928   1.393       .  A
C448        C449   1.411       .  A
C448        C927   1.393   1_545  A
C448        H452   1.078       .  S
C449        C458   1.513       .  S
C449        C930   1.428   1_545  A
C450        C929   1.428       .  A
C450        H453   1.077       .  S
C454        C455   1.409       .  A
C454        C459   1.403       .  A
C455        C456   1.411       .  A
C455        H460   1.081       .  S
C456        C457   1.418       .  A
C457        C458   1.400       .  A
C457        H461   1.069       .  S
C458        C459   1.409       .  A
C459        H462   1.078       .  S
C463        C464   1.405       .  A
C463        C468   1.426       .  A
C464        C465   1.419       .  A
C464        H469   1.079       .  S
C465        C476   1.506       .  S
C465        C466   1.387       .  A
C466        C467   1.414       .  A
C466        H470   1.080       .  S
C467        C468   1.425       .  A
C468        H471   1.082       .  S
C472        C473   1.407       .  A
C472        C477   1.439       .  A
C473        C474   1.387       .  A
C473        H478   1.078       .  S
C474        C475   1.380       .  A
C475        C476   1.399       .  A
C475        H479   1.081       .  S
C476        C477   1.441       .  A
C477        H480   1.082       .  S
O482        C491   1.259   1_554  A
O483       Ni487   1.893       .  S
O483       Ni505   1.855       .  S
O483        H506   0.966       .  S
C484        O501   1.284       .  A
C484        O493   1.290       .  A
C484        C898   1.507       .  S
O486        C488   1.268       .  A
Ni487       O490   1.952       .  S
C488        O498   1.268       .  A
C488        C889   1.497       .  S
O489       Ni505   1.927       .  S
O489        C495   1.282       .  A
O490        C495   1.288       .  A
C491        C927   1.467       .  S
O492        C494   1.267       .  A
O493       Ni504   1.963       .  S
C494        O500   1.272       .  A
C494        C692   1.496       .  S
C495        C701   1.500       .  S
H496        O497   0.966       .  S
O497       Ni499   1.857   1_565  S
O497       Ni504   1.893       .  S
Ni499       O501   1.937   1_545  S
C502        O503   1.258   1_554  A
C502        C739   1.457       .  S
O507       Ni513   1.957       .  S
O507        C528   1.294       .  A
O508       Ni531   1.877       .  S
O508        C517   1.259   1_556  A
O509       Ni513   1.905       .  S
O509       Ni531   1.861       .  S
O509       Ni525   1.919   1_556  S
O509        H532   0.966       .  S
C510        O527   1.283       .  A
C510        O519   1.288       .  A
C510        C746   1.485       .  S
O511       Ni530   1.934       .  S
O511        C517   1.285       .  A
O512       Ni530   1.934       .  S
O512        C514   1.266       .  A
Ni513       O516   1.952       .  S
Ni513       O518   1.954       .  S
C514        O524   1.267       .  A
C514        C755   1.507       .  S
O515       Ni531   1.893       .  S
O515        C521   1.276       .  A
O516        C521   1.287       .  A
C517        C712   1.466       .  S
O518        C520   1.274       .  A
O519       Ni530   1.944       .  S
C520        O526   1.267       .  A
C520        C907   1.514       .  S
C521        C916   1.485       .  S
H522        O523   0.966       .  S
O523       Ni531   1.914   1_554  S
O523       Ni525   1.853       .  S
O523       Ni530   1.896       .  S
O524       Ni525   1.920       .  S
Ni525       O529   1.870   1_554  S
Ni525       O527   1.905       .  S
O526       Ni531   1.917       .  S
C528        O529   1.258       .  A
C528        C954   1.473       .  S
O533        C554   1.280       .  A
O534       Ni557   1.875   1_545  S
O534        C543   1.260       .  A
O535       Ni539   1.894       .  S
O535       Ni557   1.860       .  S
O535        H558   0.966       .  S
C536        O553   1.276       .  A
C536        O545   1.285       .  A
C536        C629   1.488       .  S
O537        C543   1.279   1_565  A
O538        C540   1.269       .  A
Ni539       O542   1.939       .  S
C540        O550   1.280       .  A
C540        C620   1.512       .  S
O541       Ni557   1.915       .  S
O541        C547   1.283       .  A
O542        C547   1.285       .  A
C543        C667   1.442       .  S
O544        C546   1.268       .  A
O545       Ni556   1.948       .  S
C546        O552   1.282       .  A
C546        C853   1.516       .  S
C547        C862   1.482       .  S
H548        O549   0.966       .  S
O549       Ni551   1.864       .  S
O549       Ni556   1.902       .  S
Ni551       O553   1.906       .  S
O559      Ni1525   1.929   1_455  S
O559        C580   1.278   1_455  A
O560       Ni583   1.871   1_554  S
O560        C569   1.260       .  A
O561       Ni565   1.890       .  S
O561       Ni583   1.860       .  S
O561      Ni1537   1.917   1_556  S
O561        H584   0.966       .  S
C562        O579   1.275       .  A
C562        O571   1.285       .  A
C562        C728   1.483       .  S
O563      Ni1542   1.937       .  S
O563        C569   1.282       .  A
O564      Ni1542   1.924       .  S
O564        C566   1.269       .  A
Ni565      O1519   1.929       .  S
Ni565       O568   1.939       .  S
Ni565      O1530   1.916       .  S
C566        O576   1.280       .  A
C566        C719   1.515       .  S
O567       Ni583   1.916       .  S
O567        C573   1.282       .  A
O568        C573   1.286       .  A
C569        C766   1.445       .  S
O570      Ni1525   1.916   1_455  S
O570        C572   1.266       .  A
O571       Ni582   1.946       .  S
C572        O578   1.283       .  A
C572        C943   1.513       .  S
C573        C934   1.481       .  S
H574        O575   0.966       .  S
O575      Ni1543   1.929   1_454  S
O575       Ni577   1.864       .  S
O575       Ni582   1.902       .  S
O576      Ni1537   1.945       .  S
Ni577      O1536   1.945   1_455  S
Ni577       O581   1.865   1_454  S
Ni577       O579   1.895       .  S
Ni577      O1521   1.917   1_454  S
O578      Ni1543   1.955   1_455  S
C580        O581   1.257       .  A
C580        C882   1.437       .  S
Ni582      O1523   1.937   1_455  S
Ni582      O1524   1.924   1_455  S
Ni583      O1538   1.955       .  S
Ni583      O1535   1.929   1_556  S
O585      Ni1551   1.938       .  S
O585        C606   1.287       .  A
O586      Ni1569   1.860       .  S
O586        C595   1.259       .  A
O587       Ni591   1.892       .  S
O587       Ni609   1.856   1_455  S
O587      Ni1563   1.919       .  S
O587        H610   0.966       .  S
C588        O605   1.281       .  A
C588        O597   1.291       .  A
C588        C826   1.507       .  S
O589       Ni608   1.961       .  S
O589        C595   1.294       .  A
O590      Ni1568   1.932   1_455  S
O590        C592   1.269       .  A
Ni591      O1545   1.938       .  S
Ni591       O594   1.957       .  S
Ni591      O1556   1.921   1_455  S
C592        O602   1.270       .  A
C592        C835   1.501       .  S
O593       Ni609   1.930   1_455  S
O593        C599   1.283       .  A
O594        C599   1.288       .  A
C595        C873   1.473       .  S
O596      Ni1551   1.921       .  S
O596        C598   1.267       .  A
O597       Ni608   1.968       .  S
C598        O604   1.271       .  A
C598        C647   1.492       .  S
C599        C656   1.504       .  S
H600        O601   0.966       .  S
O601      Ni1569   1.921       .  S
O601       Ni603   1.854       .  S
O601       Ni608   1.894       .  S
O602      Ni1563   1.919       .  S
Ni603      O1562   1.919       .  S
Ni603      O1567   1.861       .  S
Ni603       O605   1.921       .  S
Ni603      O1547   1.919       .  S
O604      Ni1569   1.923       .  S
C606       O1567   1.258       .  A
C606       C1573   1.455       .  S
O607      Ni1563   1.861       .  S
O607       C1566   1.258       .  A
Ni608      O1550   1.932       .  S
Ni609      O1546   1.860       .  S
Ni609      O1564   1.923       .  S
Ni609      O1561   1.921       .  S
C611        C676   1.511       .  S
C611        C612   1.398       .  A
C611        C616   1.428       .  A
C612        C613   1.380       .  A
C612        H617   1.077       .  S
C613       C1566   1.455       .  S
C613       C1574   1.391   1_455  A
C614       C1573   1.391       .  A
C614        C615   1.411       .  A
C614        H618   1.075       .  S
C615        C631   1.523       .  S
C615       C1576   1.427       .  A
C616       C1575   1.427   1_455  A
C616        H619   1.068       .  S
C620        C621   1.408       .  A
C620        C625   1.425       .  A
C621        C622   1.417       .  A
C621        H626   1.079       .  S
C622        C640   1.505       .  S
C622        C623   1.389       .  A
C623        C624   1.413       .  A
C623        H627   1.080       .  S
C624        C694   1.516       .  S
C624        C625   1.425       .  A
C625        H628   1.081       .  S
C629        C630   1.408       .  A
C629        C634   1.409       .  A
C630        C631   1.412       .  A
C630        H635   1.074       .  S
C631        C632   1.405       .  A
C632        C633   1.411       .  A
C632        H636   1.070       .  S
C633        C705   1.508       .  S
C633        C634   1.412       .  A
C634        H637   1.082       .  S
C638        C649   1.506       .  S
C638        C639   1.435       .  A
C638        C643   1.406       .  A
C639        C640   1.440       .  A
C639        H644   1.082       .  S
C640        C641   1.404       .  A
C641        C642   1.384       .  A
C641        H645   1.080       .  S
C642        C783   1.474       .  S
C642        C643   1.385       .  A
C643        H646   1.079       .  S
C647        C648   1.405       .  A
C647        C652   1.416       .  A
C648        C649   1.409       .  A
C648        H653   1.080       .  S
C649        C650   1.394       .  A
C650        C651   1.425       .  A
C650        H654   1.081       .  S
C651        C721   1.513       .  S
C651        C652   1.413       .  A
C652        H655   1.082       .  S
C656        C657   1.409       .  A
C656        C661   1.414       .  A
C657        C658   1.412       .  A
C657        H662   1.083       .  S
C658        C669   1.512       .  S
C658        C659   1.393       .  A
C659        C660   1.418       .  A
C659        H663   1.074       .  S
C660        C730   1.512       .  S
C660        C661   1.422       .  A
C661        H664   1.080       .  S
C665        C687   1.514       .  S
C665        C666   1.405       .  A
C666        H671   1.083       .  S
C667        C668   1.374   1_545  A
C668        C669   1.403       .  A
C668        H672   1.081       .  S
C669        C670   1.438   1_565  A
C670        H673   1.080       .  S
C674        C780   1.512       .  S
C674        C675   1.414       .  A
C674        C679   1.422       .  A
C675        C676   1.417       .  A
C675        H680   1.075       .  S
C676        C677   1.388       .  A
C677        C678   1.393       .  A
C677        H681   1.071       .  S
C678        C748   1.506       .  S
C678        C679   1.424       .  A
C679        H682   1.081       .  S
C683        C776   1.487       .  S
C683        C684   1.405       .  A
C683        C688   1.409       .  A
C684        C685   1.414       .  A
C684        H689   1.081       .  S
C685        C757   1.507       .  S
C685        C686   1.435       .  A
C686        C687   1.393       .  A
C686        H690   1.075       .  S
C687        C688   1.394       .  A
C688        H691   1.083       .  S
C692        C693   1.423       .  A
C692        C697   1.407       .  A
C693        C694   1.418       .  A
C693        H698   1.082       .  S
C694        C695   1.416       .  A
C695        C696   1.396       .  A
C695        H699   1.075       .  S
C696        C710   1.505       .  S
C696        C697   1.404       .  A
C697        H700   1.080       .  S
C701        C702   1.407       .  A
C701        C706   1.413       .  A
C702        C703   1.410       .  A
C702        H707   1.083       .  S
C703        C768   1.511       .  S
C703        C704   1.392       .  A
C704        C705   1.419       .  A
C704        H708   1.075       .  S
C705        C706   1.421       .  A
C706        H709   1.081       .  S
C710        C711   1.410       .  A
C710        C715   1.424       .  A
C711        C712   1.391       .  A
C711        H716   1.079       .  S
C712        C713   1.389       .  A
C713        C714   1.404       .  A
C713        H717   1.081       .  S
C714        C723   1.497       .  S
C714        C715   1.433       .  A
C715        H718   1.077       .  S
C719        C720   1.432       .  A
C719        C724   1.412       .  A
C720        C721   1.426       .  A
C720        H725   1.082       .  S
C721        C722   1.399       .  A
C722        C723   1.382       .  A
C722        H726   1.072       .  S
C723        C724   1.414       .  A
C724        H727   1.081       .  S
C728        C729   1.409       .  A
C728        C733   1.403       .  A
C729        C730   1.415       .  A
C729        H734   1.081       .  S
C730        C731   1.415       .  A
C731        C732   1.405       .  A
C731        H735   1.072       .  S
C732        C741   1.515       .  S
C732        C733   1.403       .  A
C733        H736   1.074       .  S
C737        C759   1.506       .  S
C737        C738   1.393       .  A
C737        C742   1.424       .  A
C738        C739   1.377       .  A
C738        H743   1.077       .  S
C740        C741   1.415       .  A
C740        H744   1.076       .  S
C742        H745   1.073       .  S
C746        C747   1.404       .  A
C746        C751   1.405       .  A
C747        C748   1.413       .  A
C747        H752   1.081       .  S
C748        C749   1.436       .  A
C749        C750   1.397       .  A
C749        H753   1.076       .  S
C750        C764   1.516       .  S
C750        C751   1.394       .  A
C751        H754   1.082       .  S
C755        C756   1.423       .  A
C755        C760   1.409       .  A
C756        C757   1.425       .  A
C756        H761   1.081       .  S
C757        C758   1.395       .  A
C758        C759   1.386       .  A
C758        H762   1.071       .  S
C759        C760   1.414       .  A
C760        H763   1.075       .  S
C764        C765   1.407       .  A
C764       C1729   1.431       .  A
C765       C1726   1.371       .  A
C765        H770   1.081       .  S
C766       C1725   1.371       .  A
C766        C767   1.373       .  A
C767        C768   1.404       .  A
C767        H771   1.082       .  S
C768        C769   1.438       .  A
C769       C1724   1.431       .  A
C769        H772   1.079       .  S
O773       Ni779   1.934       .  S
O773        C794   1.286       .  A
O774       Ni797   1.874       .  S
O774        C783   1.261       .  A
O775       Ni779   1.895       .  S
O775       Ni797   1.855       .  S
O775       Ni791   1.914       .  S
O775        H798   0.967       .  S
C776        O793   1.275       .  A
C776        O785   1.288       .  A
O777       Ni796   1.957       .  S
O777        C783   1.293       .  A
O778       Ni796   1.947       .  S
O778        C780   1.270       .  A
Ni779       O782   1.942       .  S
Ni779       O784   1.940       .  S
C780        O790   1.266       .  A
O781       Ni797   1.909       .  S
O781        C787   1.284       .  A
O782        C787   1.287       .  A
O784        C786   1.269       .  A
O785       Ni796   1.956       .  S
C786        O792   1.270       .  A
C786        C808   1.512       .  S
C787        C799   1.483       .  S
H788        O789   0.966       .  S
O789       Ni797   1.920       .  S
O789       Ni791   1.862       .  S
O789       Ni796   1.908       .  S
O790       Ni791   1.914       .  S
Ni791       O795   1.873       .  S
Ni791       O793   1.889       .  S
O792       Ni797   1.925       .  S
C794        O795   1.255       .  A
C794        C846   1.466       .  S
C799        C800   1.403       .  A
C799        C804   1.405       .  A
C800        C801   1.398       .  A
C800        H805   1.082       .  S
C801        C817   1.508       .  S
C801        C802   1.399       .  A
C802        C803   1.432       .  A
C802        H806   1.081       .  S
C803        C909   1.506       .  S
C803        C804   1.411       .  A
C804        H807   1.080       .  S
C808        C809   1.424       .  A
C808        C813   1.409       .  A
C809        C810   1.427       .  A
C809        H814   1.081       .  S
C810        C920   1.501       .  S
C810        C811   1.400       .  A
C811        C812   1.378       .  A
C811        H815   1.081       .  S
C812        C871   1.488       .  S
C812        C813   1.413       .  A
C813        H816   1.080       .  S
C817        C818   1.399       .  A
C818        C819   1.369       .  A
C818        H823   1.083       .  S
C820        C821   1.404       .  A
C820        H824   1.080       .  S
C821        C830   1.515       .  S
C821        C822   1.441       .  A
C822        H825   1.079       .  S
C826        C827   1.416       .  A
C826        C831   1.409       .  A
C827        C828   1.427       .  A
C827        H832   1.081       .  S
C828        C936   1.511       .  S
C828        C829   1.415       .  A
C829        C830   1.388       .  A
C829        H833   1.072       .  S
C830        C831   1.411       .  A
C831        H834   1.081       .  S
C835        C836   1.411       .  A
C835        C840   1.423       .  A
C836        C837   1.407       .  A
C836        H841   1.079       .  S
C837        C844   1.512       .  S
C837        C838   1.396       .  A
C838        C839   1.415       .  A
C838        H842   1.074       .  S
C839        C947   1.516       .  S
C839        C840   1.419       .  A
C840        H843   1.082       .  S
C844        C845   1.412       .  A
C844        C849   1.429       .  A
C845        C846   1.393       .  A
C845        H850   1.078       .  S
C846        C847   1.383       .  A
C847        C848   1.400       .  A
C847        H851   1.082       .  S
C848        C855   1.497       .  S
C848        C849   1.434       .  A
C849        H852   1.076       .  S
C853        C854   1.412       .  A
C853        C858   1.432       .  A
C854        C855   1.417       .  A
C854        H859   1.081       .  S
C855        C856   1.380       .  A
C856        C857   1.400       .  A
C856        H860   1.074       .  S
C857        C891   1.510       .  S
C857        C858   1.425       .  A
C858        H861   1.082       .  S
C862        C863   1.400       .  A
C862        C867   1.412       .  A
C863        C864   1.404       .  A
C863        H868   1.080       .  S
C864        C875   1.500       .  S
C864        C865   1.397       .  A
C865        C866   1.421       .  A
C865        H869   1.080       .  S
C866        C900   1.512       .  S
C866        C867   1.415       .  A
C867        H870   1.080       .  S
C871        C872   1.397       .  A
C871        C876   1.429       .  A
C872        C873   1.382       .  A
C872        H877   1.080       .  S
C873       C1834   1.393       .  A
C874       C1833   1.392   1_455  A
C874        C875   1.410       .  A
C874        H878   1.080       .  S
C875       C1836   1.425   1_455  A
C876       C1835   1.425       .  A
C876        H879   1.082       .  S
C880        C918   1.505       .  S
C880        C881   1.400       .  A
C880       C1845   1.424       .  A
C881       C1842   1.376       .  A
C881        H886   1.083       .  S
C882       C1841   1.376       .  A
C882        C883   1.379   1_655  A
C883        C884   1.398       .  A
C883        H887   1.082       .  S
C884        C902   1.504       .  S
C884        C885   1.434   1_455  A
C885       C1840   1.424       .  A
C885        H888   1.081       .  S
C889        C890   1.417       .  A
C889        C894   1.410       .  A
C890        C891   1.413       .  A
C890        H895   1.082       .  S
C891        C892   1.422       .  A
C892        C893   1.393       .  A
C892        H896   1.082       .  S
C893        C952   1.511       .  S
C893        C894   1.413       .  A
C894        H897   1.079       .  S
C898        C899   1.419       .  A
C898        C903   1.409       .  A
C899        C900   1.425       .  A
C899        H904   1.080       .  S
C900        C901   1.409       .  A
C901        C902   1.392       .  A
C901        H905   1.077       .  S
C902        C903   1.413       .  A
C903        H906   1.082       .  S
C907        C908   1.425       .  A
C907        C912   1.412       .  A
C908        C909   1.430       .  A
C908        H913   1.080       .  S
C909        C910   1.398       .  A
C910        C911   1.379       .  A
C910        H914   1.081       .  S
C911        C925   1.486       .  S
C911        C912   1.410       .  A
C912        H915   1.081       .  S
C916        C917   1.408       .  A
C916        C921   1.406       .  A
C917        C918   1.396       .  A
C917        H922   1.082       .  S
C918        C919   1.396       .  A
C919        C920   1.427       .  A
C919        H923   1.081       .  S
C920        C921   1.412       .  A
C921        H924   1.081       .  S
C925        C926   1.398       .  A
C925        C930   1.428       .  A
C926        C927   1.384       .  A
C926        H931   1.080       .  S
C928        C929   1.411       .  A
C928        H932   1.079       .  S
C929        C938   1.513       .  S
C930        H933   1.077       .  S
C934        C935   1.409       .  A
C934        C939   1.403       .  A
C935        C936   1.411       .  A
C935        H940   1.081       .  S
C936        C937   1.418       .  A
C937        C938   1.400       .  A
C937        H941   1.069       .  S
C938        C939   1.409       .  A
C939        H942   1.079       .  S
C943        C944   1.405       .  A
C943        C948   1.426       .  A
C944        C945   1.419       .  A
C944        H949   1.079       .  S
C945        C956   1.506       .  S
C945        C946   1.387       .  A
C946        C947   1.414       .  A
C946        H950   1.080       .  S
C947        C948   1.425       .  A
C948        H951   1.082       .  S
C952        C953   1.407       .  A
C952        C957   1.439       .  A
C953        C954   1.387       .  A
C953        H958   1.078       .  S
C954        C955   1.380       .  A
C955        C956   1.399       .  A
C955        H959   1.081       .  S
C956        C957   1.441       .  A
C957        H960   1.082       .  S
O961      Ni1447   1.937       .  S
O961       C1462   1.288       .  A
O962      Ni1465   1.865       .  S
O962        C971   1.259   1_554  A
O963       Ni967   1.893       .  S
O963       Ni985   1.855   1_545  S
O963      Ni1459   1.924   1_554  S
O963        H986   0.966       .  S
C964        O981   1.284       .  A
C964        O973   1.290       .  A
C964       C1378   1.507       .  S
O965      Ni1464   1.949       .  S
O965       C1451   1.291       .  A
O966      Ni1464   1.929   1_545  S
O966        C968   1.268       .  A
Ni967      O1441   1.937       .  S
Ni967       O970   1.952       .  S
Ni967      O1452   1.923   1_545  S
C968        O978   1.268       .  A
C968       C1369   1.497       .  S
O969       Ni985   1.927   1_545  S
O969        C975   1.282       .  A
O970        C975   1.288       .  A
C971       O1445   1.291       .  A
C971       C1407   1.467       .  S
O972      Ni1447   1.923       .  S
O972        C974   1.267       .  A
O973       Ni984   1.963       .  S
C974        O980   1.272       .  A
C974       C1172   1.496       .  S
C975       C1181   1.500       .  S
H976        O977   0.966       .  S
O977      Ni1465   1.923   1_556  S
O977       Ni979   1.857       .  S
O977       Ni984   1.893       .  S
O978      Ni1459   1.919       .  S
Ni979      O1458   1.919       .  S
Ni979      O1463   1.858       .  S
Ni979       O981   1.937       .  S
Ni979      O1443   1.924   1_556  S
O980      Ni1465   1.922       .  S
C982       O1441   1.288       .  A
C982        O983   1.258   1_554  A
C982       C1219   1.457       .  S
O983      Ni1459   1.858       .  S
Ni984      O1445   1.949       .  S
Ni984      O1446   1.929       .  S
Ni985      O1442   1.865       .  S
Ni985      O1460   1.922       .  S
Ni985      O1457   1.923   1_554  S
O987       Ni993   1.957       .  S
O987       C1008   1.294       .  A
O988      Ni1011   1.877       .  S
O988        C997   1.259   1_556  A
O989       Ni993   1.905       .  S
O989      Ni1011   1.861       .  S
O989      Ni1005   1.919   1_556  S
O989       H1012   0.966       .  S
C990       O1007   1.283       .  A
C990        O999   1.288       .  A
C990       C1226   1.485       .  S
O991      Ni1010   1.934       .  S
O991        C997   1.285       .  A
O992      Ni1010   1.934       .  S
O992        C994   1.266       .  A
Ni993       O996   1.952       .  S
Ni993       O998   1.954       .  S
C994       O1004   1.267       .  A
C994       C1235   1.507       .  S
O995      Ni1011   1.893       .  S
O995       C1001   1.276       .  A
O996       C1001   1.287       .  A
C997       C1192   1.466       .  S
O998       C1000   1.274       .  A
O999      Ni1010   1.944       .  S
C1000      O1006   1.267       .  A
C1000      C1387   1.514       .  S
C1001      C1396   1.485       .  S
H1002      O1003   0.966       .  S
O1003     Ni1011   1.914   1_554  S
O1003     Ni1005   1.853       .  S
O1003     Ni1010   1.896       .  S
O1004     Ni1005   1.920       .  S
Ni1005     O1009   1.870   1_554  S
Ni1005     O1007   1.905       .  S
O1006     Ni1011   1.917       .  S
C1008      O1009   1.258       .  A
C1008      C1434   1.473       .  S
O1013     Ni1499   1.935   1_545  S
O1013      C1034   1.280   1_545  A
O1014     Ni1037   1.875       .  S
O1014      C1023   1.260       .  A
O1015     Ni1019   1.894       .  S
O1015     Ni1037   1.860       .  S
O1015     Ni1511   1.920       .  S
O1015      H1038   0.966       .  S
C1016      O1033   1.276       .  A
C1016      O1025   1.285       .  A
C1016      C1109   1.488       .  S
O1017     Ni1516   1.931       .  S
O1017      C1023   1.279       .  A
O1018     Ni1516   1.922       .  S
O1018      C1020   1.269       .  A
Ni1019     O1493   1.935       .  S
Ni1019     O1022   1.939       .  S
Ni1019     O1504   1.920       .  S
C1020      O1030   1.280       .  A
C1020      C1100   1.512       .  S
O1021     Ni1037   1.915       .  S
O1021      C1027   1.283       .  A
O1022      C1027   1.285       .  A
C1023      C1147   1.442       .  S
O1024     Ni1499   1.920   1_545  S
O1024      C1026   1.268       .  A
O1025     Ni1036   1.948       .  S
C1026      O1032   1.282       .  A
C1026      C1333   1.516       .  S
C1027      C1342   1.482       .  S
H1028      O1029   0.966       .  S
O1029     Ni1517   1.933   1_545  S
O1029     Ni1031   1.864   1_545  S
O1029     Ni1036   1.902       .  S
O1030     Ni1511   1.946       .  S
Ni1031     O1510   1.946       .  S
Ni1031     O1515   1.862       .  S
Ni1031     O1033   1.906   1_565  S
Ni1031     O1495   1.920       .  S
O1032     Ni1517   1.954   1_545  S
C1034      O1515   1.257       .  A
C1034      C1779   1.438       .  S
O1035     Ni1511   1.862       .  S
O1035      C1514   1.257       .  A
Ni1036     O1497   1.931   1_545  S
Ni1036     O1498   1.922   1_545  S
Ni1037     O1512   1.954       .  S
Ni1037     O1509   1.933       .  S
O1039      C1060   1.278       .  A
O1040     Ni1063   1.871   1_454  S
O1040      C1049   1.260       .  A
O1041     Ni1045   1.890       .  S
O1041     Ni1063   1.860       .  S
O1041      H1064   0.966       .  S
C1042      O1059   1.275       .  A
C1042      O1051   1.285       .  A
C1042      C1208   1.483       .  S
O1043      C1049   1.282   1_655  A
O1044      C1046   1.269       .  A
Ni1045     O1048   1.940       .  S
C1046      O1056   1.280       .  A
C1046      C1199   1.515       .  S
O1047     Ni1063   1.916       .  S
O1047      C1053   1.282       .  A
O1048      C1053   1.286       .  A
C1049      C1246   1.445       .  S
O1050      C1052   1.266       .  A
O1051     Ni1062   1.946       .  S
C1052      O1058   1.283       .  A
C1052      C1423   1.513       .  S
C1053      C1414   1.481       .  S
H1054      O1055   0.966       .  S
O1055     Ni1057   1.864       .  S
O1055     Ni1062   1.902       .  S
Ni1057     O1061   1.865   1_554  S
Ni1057     O1059   1.895       .  S
C1060      O1061   1.257       .  A
C1060      C1362   1.437       .  S
O1065      C1086   1.287       .  A
O1066      C1075   1.259       .  A
O1067     Ni1071   1.892       .  S
O1067     Ni1089   1.856       .  S
O1067      H1090   0.966       .  S
C1068      O1085   1.281       .  A
C1068      O1077   1.291       .  A
C1068      C1306   1.507       .  S
O1069     Ni1088   1.961       .  S
O1069      C1075   1.294       .  A
O1070      C1072   1.269       .  A
Ni1071     O1074   1.957       .  S
C1072      O1082   1.270       .  A
C1072      C1315   1.501       .  S
O1073     Ni1089   1.930       .  S
O1073      C1079   1.283       .  A
O1074      C1079   1.288       .  A
C1075      C1353   1.473       .  S
O1076      C1078   1.267       .  A
O1077     Ni1088   1.968       .  S
C1078      O1084   1.271       .  A
C1078      C1127   1.492       .  S
C1079      C1136   1.504       .  S
H1080      O1081   0.966       .  S
O1081     Ni1083   1.854   1_655  S
O1081     Ni1088   1.894       .  S
Ni1083     O1085   1.921   1_455  S
C1091      C1156   1.511       .  S
C1091      C1092   1.398       .  A
C1091      C1096   1.428       .  A
C1092      C1093   1.380       .  A
C1092      H1097   1.077       .  S
C1094      C1095   1.411       .  A
C1094      H1098   1.075       .  S
C1095      C1111   1.523       .  S
C1096      H1099   1.068       .  S
C1100      C1101   1.408       .  A
C1100      C1105   1.425       .  A
C1101      C1102   1.417       .  A
C1101      H1106   1.079       .  S
C1102      C1120   1.505       .  S
C1102      C1103   1.389       .  A
C1103      C1104   1.413       .  A
C1103      H1107   1.080       .  S
C1104      C1174   1.516       .  S
C1104      C1105   1.425       .  A
C1105      H1108   1.081       .  S
C1109      C1110   1.408       .  A
C1109      C1114   1.409       .  A
C1110      C1111   1.412       .  A
C1110      H1115   1.074       .  S
C1111      C1112   1.405       .  A
C1112      C1113   1.411       .  A
C1112      H1116   1.070       .  S
C1113      C1185   1.508       .  S
C1113      C1114   1.412       .  A
C1114      H1117   1.082       .  S
C1118      C1129   1.507       .  S
C1118      C1119   1.435       .  A
C1118      C1123   1.406       .  A
C1119      C1120   1.440       .  A
C1119      H1124   1.082       .  S
C1120      C1121   1.404       .  A
C1121      C1122   1.384       .  A
C1121      H1125   1.080       .  S
C1122      C1263   1.474       .  S
C1122      C1123   1.385       .  A
C1123      H1126   1.079       .  S
C1127      C1128   1.405       .  A
C1127      C1132   1.416       .  A
C1128      C1129   1.409       .  A
C1128      H1133   1.080       .  S
C1129      C1130   1.394       .  A
C1130      C1131   1.425       .  A
C1130      H1134   1.081       .  S
C1131      C1201   1.513       .  S
C1131      C1132   1.413       .  A
C1132      H1135   1.082       .  S
C1136      C1137   1.409       .  A
C1136      C1141   1.414       .  A
C1137      C1138   1.412       .  A
C1137      H1142   1.083       .  S
C1138      C1149   1.512       .  S
C1138      C1139   1.393       .  A
C1139      C1140   1.418       .  A
C1139      H1143   1.074       .  S
C1140      C1210   1.512       .  S
C1140      C1141   1.422       .  A
C1141      H1144   1.080       .  S
C1145      C1167   1.514       .  S
C1145      C1146   1.405       .  A
C1145      C1630   1.431       .  A
C1146      C1627   1.374       .  A
C1146      H1151   1.083       .  S
C1147      C1626   1.374       .  A
C1147      C1148   1.374       .  A
C1148      C1149   1.403       .  A
C1148      H1152   1.081       .  S
C1149      C1150   1.438       .  A
C1150      C1625   1.431       .  A
C1150      H1153   1.080       .  S
C1154      C1260   1.512       .  S
C1154      C1155   1.414       .  A
C1154      C1159   1.422       .  A
C1155      C1156   1.417       .  A
C1155      H1160   1.075       .  S
C1156      C1157   1.388       .  A
C1157      C1158   1.393       .  A
C1157      H1161   1.071       .  S
C1158      C1228   1.505       .  S
C1158      C1159   1.424       .  A
C1159      H1162   1.081       .  S
C1163      C1256   1.487       .  S
C1163      C1164   1.405       .  A
C1163      C1168   1.409       .  A
C1164      C1165   1.414       .  A
C1164      H1169   1.081       .  S
C1165      C1237   1.507       .  S
C1165      C1166   1.435       .  A
C1166      C1167   1.393       .  A
C1166      H1170   1.075       .  S
C1167      C1168   1.394       .  A
C1168      H1171   1.083       .  S
C1172      C1173   1.423       .  A
C1172      C1177   1.407       .  A
C1173      C1174   1.418       .  A
C1173      H1178   1.082       .  S
C1174      C1175   1.416       .  A
C1175      C1176   1.396       .  A
C1175      H1179   1.075       .  S
C1176      C1190   1.505       .  S
C1176      C1177   1.404       .  A
C1177      H1180   1.080       .  S
C1181      C1182   1.407       .  A
C1181      C1186   1.413       .  A
C1182      C1183   1.410       .  A
C1182      H1187   1.083       .  S
C1183      C1248   1.511       .  S
C1183      C1184   1.392       .  A
C1184      C1185   1.419       .  A
C1184      H1188   1.075       .  S
C1185      C1186   1.421       .  A
C1186      H1189   1.081       .  S
C1190      C1191   1.410       .  A
C1190      C1195   1.424       .  A
C1191      C1192   1.391       .  A
C1191      H1196   1.079       .  S
C1192      C1193   1.389       .  A
C1193      C1194   1.404       .  A
C1193      H1197   1.081       .  S
C1194      C1203   1.497       .  S
C1194      C1195   1.433       .  A
C1195      H1198   1.077       .  S
C1199      C1200   1.432       .  A
C1199      C1204   1.412       .  A
C1200      C1201   1.426       .  A
C1200      H1205   1.082       .  S
C1201      C1202   1.399       .  A
C1202      C1203   1.382       .  A
C1202      H1206   1.072       .  S
C1203      C1204   1.414       .  A
C1204      H1207   1.081       .  S
C1208      C1209   1.409       .  A
C1208      C1213   1.403       .  A
C1209      C1210   1.415       .  A
C1209      H1214   1.081       .  S
C1210      C1211   1.415       .  A
C1211      C1212   1.405       .  A
C1211      H1215   1.072       .  S
C1212      C1221   1.515       .  S
C1212      C1213   1.403       .  A
C1213      H1216   1.074       .  S
C1217      C1239   1.506       .  S
C1217      C1218   1.393       .  A
C1217      C1222   1.424       .  A
C1218      C1219   1.377       .  A
C1218      H1223   1.077       .  S
C1219      C1700   1.391   1_545  A
C1220      C1699   1.391       .  A
C1220      C1221   1.415       .  A
C1220      H1224   1.076       .  S
C1221      C1702   1.424       .  A
C1222      C1701   1.424   1_545  A
C1222      H1225   1.073       .  S
C1226      C1227   1.404       .  A
C1226      C1231   1.405       .  A
C1227      C1228   1.413       .  A
C1227      H1232   1.081       .  S
C1228      C1229   1.436       .  A
C1229      C1230   1.397       .  A
C1229      H1233   1.077       .  S
C1230      C1244   1.516       .  S
C1230      C1231   1.394       .  A
C1231      H1234   1.082       .  S
C1235      C1236   1.423       .  A
C1235      C1240   1.409       .  A
C1236      C1237   1.425       .  A
C1236      H1241   1.081       .  S
C1237      C1238   1.395       .  A
C1238      C1239   1.386       .  A
C1238      H1242   1.071       .  S
C1239      C1240   1.414       .  A
C1240      H1243   1.075       .  S
C1244      C1245   1.407       .  A
C1245      H1250   1.081       .  S
C1246      C1247   1.373   1_455  A
C1247      C1248   1.404       .  A
C1247      H1251   1.082       .  S
C1248      C1249   1.438   1_655  A
C1249      H1252   1.079       .  S
O1253     Ni1259   1.934       .  S
O1253      C1274   1.286       .  A
O1254     Ni1277   1.874       .  S
O1254      C1263   1.261       .  A
O1255     Ni1259   1.895       .  S
O1255     Ni1277   1.855       .  S
O1255     Ni1271   1.914       .  S
O1255      H1278   0.967       .  S
C1256      O1273   1.275       .  A
C1256      O1265   1.288       .  A
O1257     Ni1276   1.957       .  S
O1257      C1263   1.293       .  A
O1258     Ni1276   1.947       .  S
O1258      C1260   1.270       .  A
Ni1259     O1262   1.942       .  S
Ni1259     O1264   1.940       .  S
C1260      O1270   1.266       .  A
O1261     Ni1277   1.909       .  S
O1261      C1267   1.284       .  A
O1262      C1267   1.287       .  A
O1264      C1266   1.269       .  A
O1265     Ni1276   1.956       .  S
C1266      O1272   1.270       .  A
C1266      C1288   1.512       .  S
C1267      C1279   1.483       .  S
H1268      O1269   0.966       .  S
O1269     Ni1277   1.920       .  S
O1269     Ni1271   1.862       .  S
O1269     Ni1276   1.908       .  S
O1270     Ni1271   1.914       .  S
Ni1271     O1275   1.873       .  S
Ni1271     O1273   1.889       .  S
O1272     Ni1277   1.925       .  S
C1274      O1275   1.255       .  A
C1274      C1326   1.466       .  S
C1279      C1280   1.403       .  A
C1279      C1284   1.405       .  A
C1280      C1281   1.398       .  A
C1280      H1285   1.082       .  S
C1281      C1297   1.508       .  S
C1281      C1282   1.399       .  A
C1282      C1283   1.432       .  A
C1282      H1286   1.081       .  S
C1283      C1389   1.506       .  S
C1283      C1284   1.411       .  A
C1284      H1287   1.080       .  S
C1288      C1289   1.424       .  A
C1288      C1293   1.409       .  A
C1289      C1290   1.427       .  A
C1289      H1294   1.081       .  S
C1290      C1400   1.501       .  S
C1290      C1291   1.400       .  A
C1291      C1292   1.378       .  A
C1291      H1295   1.081       .  S
C1292      C1351   1.488       .  S
C1292      C1293   1.413       .  A
C1293      H1296   1.080       .  S
C1297      C1298   1.399       .  A
C1297      C1782   1.428       .  A
C1298      C1299   1.369       .  A
C1298      H1303   1.083       .  S
C1299      C1514   1.438       .  S
C1299      C1780   1.376       .  A
C1300      C1779   1.376   1_545  A
C1300      C1301   1.404       .  A
C1300      H1304   1.080       .  S
C1301      C1310   1.515       .  S
C1301      C1302   1.441   1_545  A
C1302      C1777   1.428       .  A
C1302      H1305   1.079       .  S
C1306      C1307   1.416       .  A
C1306      C1311   1.409       .  A
C1307      C1308   1.427       .  A
C1307      H1312   1.081       .  S
C1308      C1416   1.511       .  S
C1308      C1309   1.415       .  A
C1309      C1310   1.388       .  A
C1309      H1313   1.072       .  S
C1310      C1311   1.411       .  A
C1311      H1314   1.081       .  S
C1315      C1316   1.411       .  A
C1315      C1320   1.423       .  A
C1316      C1317   1.407       .  A
C1316      H1321   1.079       .  S
C1317      C1324   1.512       .  S
C1317      C1318   1.396       .  A
C1318      C1319   1.415       .  A
C1318      H1322   1.074       .  S
C1319      C1427   1.516       .  S
C1319      C1320   1.419       .  A
C1320      H1323   1.082       .  S
C1324      C1325   1.412       .  A
C1324      C1329   1.429       .  A
C1325      C1326   1.393       .  A
C1325      H1330   1.078       .  S
C1326      C1327   1.383       .  A
C1327      C1328   1.400       .  A
C1327      H1331   1.082       .  S
C1328      C1335   1.497       .  S
C1328      C1329   1.434       .  A
C1329      H1332   1.076       .  S
C1333      C1334   1.411       .  A
C1333      C1338   1.432       .  A
C1334      C1335   1.416       .  A
C1334      H1339   1.081       .  S
C1335      C1336   1.380       .  A
C1336      C1337   1.400       .  A
C1336      H1340   1.074       .  S
C1337      C1371   1.510       .  S
C1337      C1338   1.425       .  A
C1338      H1341   1.082       .  S
C1342      C1343   1.400       .  A
C1342      C1347   1.412       .  A
C1343      C1344   1.404       .  A
C1343      H1348   1.080       .  S
C1344      C1355   1.500       .  S
C1344      C1345   1.397       .  A
C1345      C1346   1.421       .  A
C1345      H1349   1.080       .  S
C1346      C1380   1.512       .  S
C1346      C1347   1.415       .  A
C1347      H1350   1.080       .  S
C1351      C1352   1.397       .  A
C1351      C1356   1.429       .  A
C1352      C1353   1.382       .  A
C1352      H1357   1.080       .  S
C1354      C1355   1.410       .  A
C1354      H1358   1.080       .  S
C1356      H1359   1.082       .  S
C1360      C1398   1.505       .  S
C1360      C1361   1.400       .  A
C1361      H1366   1.083       .  S
C1362      C1363   1.379       .  A
C1363      C1364   1.398       .  A
C1363      H1367   1.082       .  S
C1364      C1382   1.504       .  S
C1364      C1365   1.434       .  A
C1365      H1368   1.081       .  S
C1369      C1370   1.417       .  A
C1369      C1374   1.410       .  A
C1370      C1371   1.413       .  A
C1370      H1375   1.082       .  S
C1371      C1372   1.422       .  A
C1372      C1373   1.393       .  A
C1372      H1376   1.082       .  S
C1373      C1432   1.511       .  S
C1373      C1374   1.413       .  A
C1374      H1377   1.079       .  S
C1378      C1379   1.419       .  A
C1378      C1383   1.409       .  A
C1379      C1380   1.425       .  A
C1379      H1384   1.080       .  S
C1380      C1381   1.409       .  A
C1381      C1382   1.392       .  A
C1381      H1385   1.077       .  S
C1382      C1383   1.413       .  A
C1383      H1386   1.082       .  S
C1387      C1388   1.425       .  A
C1387      C1392   1.412       .  A
C1388      C1389   1.430       .  A
C1388      H1393   1.080       .  S
C1389      C1390   1.398       .  A
C1390      C1391   1.379       .  A
C1390      H1394   1.081       .  S
C1391      C1405   1.486       .  S
C1391      C1392   1.410       .  A
C1392      H1395   1.081       .  S
C1396      C1397   1.408       .  A
C1396      C1401   1.406       .  A
C1397      C1398   1.396       .  A
C1397      H1402   1.082       .  S
C1398      C1399   1.396       .  A
C1399      C1400   1.427       .  A
C1399      H1403   1.081       .  S
C1400      C1401   1.412       .  A
C1401      H1404   1.081       .  S
C1405      C1406   1.398       .  A
C1405      C1410   1.428       .  A
C1406      C1407   1.384       .  A
C1406      H1411   1.080       .  S
C1407      C1888   1.393       .  A
C1408      C1887   1.393   1_545  A
C1408      C1409   1.411       .  A
C1408      H1412   1.078       .  S
C1409      C1418   1.513       .  S
C1409      C1890   1.428   1_545  A
C1410      C1889   1.428       .  A
C1410      H1413   1.077       .  S
C1414      C1415   1.409       .  A
C1414      C1419   1.403       .  A
C1415      C1416   1.411       .  A
C1415      H1420   1.081       .  S
C1416      C1417   1.418       .  A
C1417      C1418   1.400       .  A
C1417      H1421   1.069       .  S
C1418      C1419   1.409       .  A
C1419      H1422   1.078       .  S
C1423      C1424   1.405       .  A
C1423      C1428   1.426       .  A
C1424      C1425   1.419       .  A
C1424      H1429   1.079       .  S
C1425      C1436   1.506       .  S
C1425      C1426   1.387       .  A
C1426      C1427   1.414       .  A
C1426      H1430   1.080       .  S
C1427      C1428   1.425       .  A
C1428      H1431   1.082       .  S
C1432      C1433   1.407       .  A
C1432      C1437   1.439       .  A
C1433      C1434   1.387       .  A
C1433      H1438   1.078       .  S
C1434      C1435   1.380       .  A
C1435      C1436   1.399       .  A
C1435      H1439   1.081       .  S
C1436      C1437   1.441       .  A
C1437      H1440   1.082       .  S
O1442      C1451   1.259   1_554  A
O1443     Ni1447   1.893       .  S
O1443     Ni1465   1.855       .  S
O1443      H1466   0.966       .  S
C1444      O1461   1.284       .  A
C1444      O1453   1.290       .  A
C1444      C1858   1.507       .  S
O1446      C1448   1.268       .  A
Ni1447     O1450   1.952       .  S
C1448      O1458   1.268       .  A
C1448      C1849   1.497       .  S
O1449     Ni1465   1.927       .  S
O1449      C1455   1.282       .  A
O1450      C1455   1.288       .  A
C1451      C1887   1.467       .  S
O1452      C1454   1.267       .  A
O1453     Ni1464   1.963       .  S
C1454      O1460   1.272       .  A
C1454      C1652   1.496       .  S
C1455      C1661   1.500       .  S
H1456      O1457   0.966       .  S
O1457     Ni1459   1.857   1_565  S
O1457     Ni1464   1.893       .  S
Ni1459     O1461   1.937   1_545  S
C1462      O1463   1.258   1_554  A
C1462      C1699   1.457       .  S
O1467     Ni1473   1.957       .  S
O1467      C1488   1.294       .  A
O1468     Ni1491   1.877       .  S
O1468      C1477   1.259   1_556  A
O1469     Ni1473   1.905       .  S
O1469     Ni1491   1.861       .  S
O1469     Ni1485   1.919   1_556  S
O1469      H1492   0.966       .  S
C1470      O1487   1.283       .  A
C1470      O1479   1.288       .  A
C1470      C1706   1.485       .  S
O1471     Ni1490   1.934       .  S
O1471      C1477   1.285       .  A
O1472     Ni1490   1.934       .  S
O1472      C1474   1.266       .  A
Ni1473     O1476   1.952       .  S
Ni1473     O1478   1.954       .  S
C1474      O1484   1.267       .  A
C1474      C1715   1.507       .  S
O1475     Ni1491   1.893       .  S
O1475      C1481   1.276       .  A
O1476      C1481   1.287       .  A
C1477      C1672   1.466       .  S
O1478      C1480   1.274       .  A
O1479     Ni1490   1.944       .  S
C1480      O1486   1.267       .  A
C1480      C1867   1.515       .  S
C1481      C1876   1.485       .  S
H1482      O1483   0.966       .  S
O1483     Ni1491   1.914   1_554  S
O1483     Ni1485   1.853       .  S
O1483     Ni1490   1.896       .  S
O1484     Ni1485   1.920       .  S
Ni1485     O1489   1.870   1_554  S
Ni1485     O1487   1.905       .  S
O1486     Ni1491   1.917       .  S
C1488      O1489   1.258       .  A
C1488      C1914   1.473       .  S
O1493      C1514   1.280       .  A
O1494     Ni1517   1.875   1_545  S
O1494      C1503   1.260       .  A
O1495     Ni1499   1.894       .  S
O1495     Ni1517   1.861       .  S
O1495      H1518   0.966       .  S
C1496      O1513   1.276       .  A
C1496      O1505   1.285       .  A
C1496      C1589   1.488       .  S
O1497      C1503   1.279   1_565  A
O1498      C1500   1.269       .  A
Ni1499     O1502   1.939       .  S
C1500      O1510   1.280       .  A
C1500      C1580   1.512       .  S
O1501     Ni1517   1.915       .  S
O1501      C1507   1.283       .  A
O1502      C1507   1.285       .  A
C1503      C1627   1.442       .  S
O1504      C1506   1.268       .  A
O1505     Ni1516   1.949       .  S
C1506      O1512   1.282       .  A
C1506      C1813   1.516       .  S
C1507      C1822   1.482       .  S
H1508      O1509   0.966       .  S
O1509     Ni1511   1.864       .  S
O1509     Ni1516   1.902       .  S
Ni1511     O1513   1.906       .  S
O1519      C1540   1.278       .  A
O1520     Ni1543   1.871   1_454  S
O1520      C1529   1.260       .  A
O1521     Ni1525   1.890       .  S
O1521     Ni1543   1.860       .  S
O1521      H1544   0.966       .  S
C1522      O1539   1.275       .  A
C1522      O1531   1.285       .  A
C1522      C1688   1.483       .  S
O1523      C1529   1.282   1_655  A
O1524      C1526   1.269       .  A
Ni1525     O1528   1.939       .  S
C1526      O1536   1.280       .  A
C1526      C1679   1.515       .  S
O1527     Ni1543   1.916       .  S
O1527      C1533   1.282       .  A
O1528      C1533   1.286       .  A
C1529      C1726   1.445       .  S
O1530      C1532   1.266       .  A
O1531     Ni1542   1.946       .  S
C1532      O1538   1.283       .  A
C1532      C1903   1.513       .  S
C1533      C1894   1.481       .  S
H1534      O1535   0.966       .  S
O1535     Ni1537   1.863       .  S
O1535     Ni1542   1.902       .  S
Ni1537     O1541   1.865   1_554  S
Ni1537     O1539   1.895       .  S
C1540      O1541   1.257       .  A
C1540      C1842   1.437       .  S
O1545      C1566   1.287       .  A
O1546      C1555   1.259       .  A
O1547     Ni1551   1.892       .  S
O1547     Ni1569   1.856       .  S
O1547      H1570   0.966       .  S
C1548      O1565   1.281       .  A
C1548      O1557   1.291       .  A
C1548      C1786   1.507       .  S
O1549     Ni1568   1.962       .  S
O1549      C1555   1.294       .  A
O1550      C1552   1.269       .  A
Ni1551     O1554   1.957       .  S
C1552      O1562   1.270       .  A
C1552      C1795   1.501       .  S
O1553     Ni1569   1.930       .  S
O1553      C1559   1.283       .  A
O1554      C1559   1.288       .  A
C1555      C1833   1.473       .  S
O1556      C1558   1.267       .  A
O1557     Ni1568   1.968       .  S
C1558      O1564   1.271       .  A
C1558      C1607   1.492       .  S
C1559      C1616   1.504       .  S
H1560      O1561   0.966       .  S
O1561     Ni1563   1.854   1_655  S
O1561     Ni1568   1.894       .  S
Ni1563     O1565   1.921   1_455  S
C1571      C1636   1.511       .  S
C1571      C1572   1.398       .  A
C1571      C1576   1.428       .  A
C1572      C1573   1.380       .  A
C1572      H1577   1.077       .  S
C1574      C1575   1.411       .  A
C1574      H1578   1.075       .  S
C1575      C1591   1.523       .  S
C1576      H1579   1.068       .  S
C1580      C1581   1.408       .  A
C1580      C1585   1.425       .  A
C1581      C1582   1.417       .  A
C1581      H1586   1.079       .  S
C1582      C1600   1.505       .  S
C1582      C1583   1.389       .  A
C1583      C1584   1.413       .  A
C1583      H1587   1.080       .  S
C1584      C1654   1.516       .  S
C1584      C1585   1.425       .  A
C1585      H1588   1.081       .  S
C1589      C1590   1.408       .  A
C1589      C1594   1.409       .  A
C1590      C1591   1.412       .  A
C1590      H1595   1.074       .  S
C1591      C1592   1.405       .  A
C1592      C1593   1.411       .  A
C1592      H1596   1.070       .  S
C1593      C1665   1.508       .  S
C1593      C1594   1.412       .  A
C1594      H1597   1.082       .  S
C1598      C1609   1.507       .  S
C1598      C1599   1.435       .  A
C1598      C1603   1.406       .  A
C1599      C1600   1.440       .  A
C1599      H1604   1.082       .  S
C1600      C1601   1.404       .  A
C1601      C1602   1.384       .  A
C1601      H1605   1.080       .  S
C1602      C1743   1.474       .  S
C1602      C1603   1.385       .  A
C1603      H1606   1.079       .  S
C1607      C1608   1.405       .  A
C1607      C1612   1.416       .  A
C1608      C1609   1.409       .  A
C1608      H1613   1.080       .  S
C1609      C1610   1.394       .  A
C1610      C1611   1.425       .  A
C1610      H1614   1.081       .  S
C1611      C1681   1.513       .  S
C1611      C1612   1.413       .  A
C1612      H1615   1.082       .  S
C1616      C1617   1.409       .  A
C1616      C1621   1.414       .  A
C1617      C1618   1.412       .  A
C1617      H1622   1.083       .  S
C1618      C1629   1.512       .  S
C1618      C1619   1.393       .  A
C1619      C1620   1.418       .  A
C1619      H1623   1.074       .  S
C1620      C1690   1.512       .  S
C1620      C1621   1.422       .  A
C1621      H1624   1.080       .  S
C1625      C1647   1.514       .  S
C1625      C1626   1.405       .  A
C1626      H1631   1.083       .  S
C1627      C1628   1.374   1_545  A
C1628      C1629   1.403       .  A
C1628      H1632   1.081       .  S
C1629      C1630   1.438   1_565  A
C1630      H1633   1.080       .  S
C1634      C1740   1.512       .  S
C1634      C1635   1.414       .  A
C1634      C1639   1.422       .  A
C1635      C1636   1.417       .  A
C1635      H1640   1.075       .  S
C1636      C1637   1.388       .  A
C1637      C1638   1.393       .  A
C1637      H1641   1.071       .  S
C1638      C1708   1.505       .  S
C1638      C1639   1.424       .  A
C1639      H1642   1.081       .  S
C1643      C1736   1.487       .  S
C1643      C1644   1.405       .  A
C1643      C1648   1.409       .  A
C1644      C1645   1.414       .  A
C1644      H1649   1.081       .  S
C1645      C1717   1.507       .  S
C1645      C1646   1.435       .  A
C1646      C1647   1.393       .  A
C1646      H1650   1.075       .  S
C1647      C1648   1.394       .  A
C1648      H1651   1.083       .  S
C1652      C1653   1.423       .  A
C1652      C1657   1.407       .  A
C1653      C1654   1.418       .  A
C1653      H1658   1.082       .  S
C1654      C1655   1.416       .  A
C1655      C1656   1.396       .  A
C1655      H1659   1.075       .  S
C1656      C1670   1.505       .  S
C1656      C1657   1.404       .  A
C1657      H1660   1.080       .  S
C1661      C1662   1.407       .  A
C1661      C1666   1.413       .  A
C1662      C1663   1.410       .  A
C1662      H1667   1.083       .  S
C1663      C1728   1.511       .  S
C1663      C1664   1.392       .  A
C1664      C1665   1.419       .  A
C1664      H1668   1.075       .  S
C1665      C1666   1.421       .  A
C1666      H1669   1.081       .  S
C1670      C1671   1.410       .  A
C1670      C1675   1.424       .  A
C1671      C1672   1.391       .  A
C1671      H1676   1.079       .  S
C1672      C1673   1.389       .  A
C1673      C1674   1.404       .  A
C1673      H1677   1.081       .  S
C1674      C1683   1.497       .  S
C1674      C1675   1.433       .  A
C1675      H1678   1.077       .  S
C1679      C1680   1.432       .  A
C1679      C1684   1.412       .  A
C1680      C1681   1.426       .  A
C1680      H1685   1.082       .  S
C1681      C1682   1.399       .  A
C1682      C1683   1.382       .  A
C1682      H1686   1.072       .  S
C1683      C1684   1.414       .  A
C1684      H1687   1.081       .  S
C1688      C1689   1.409       .  A
C1688      C1693   1.403       .  A
C1689      C1690   1.415       .  A
C1689      H1694   1.081       .  S
C1690      C1691   1.415       .  A
C1691      C1692   1.405       .  A
C1691      H1695   1.072       .  S
C1692      C1701   1.515       .  S
C1692      C1693   1.403       .  A
C1693      H1696   1.074       .  S
C1697      C1719   1.506       .  S
C1697      C1698   1.393       .  A
C1697      C1702   1.424       .  A
C1698      C1699   1.377       .  A
C1698      H1703   1.077       .  S
C1700      C1701   1.415       .  A
C1700      H1704   1.076       .  S
C1702      H1705   1.073       .  S
C1706      C1707   1.404       .  A
C1706      C1711   1.405       .  A
C1707      C1708   1.413       .  A
C1707      H1712   1.081       .  S
C1708      C1709   1.436       .  A
C1709      C1710   1.397       .  A
C1709      H1713   1.077       .  S
C1710      C1724   1.516       .  S
C1710      C1711   1.394       .  A
C1711      H1714   1.082       .  S
C1715      C1716   1.423       .  A
C1715      C1720   1.409       .  A
C1716      C1717   1.425       .  A
C1716      H1721   1.081       .  S
C1717      C1718   1.395       .  A
C1718      C1719   1.386       .  A
C1718      H1722   1.071       .  S
C1719      C1720   1.414       .  A
C1720      H1723   1.075       .  S
C1724      C1725   1.407       .  A
C1725      H1730   1.081       .  S
C1726      C1727   1.373   1_455  A
C1727      C1728   1.404       .  A
C1727      H1731   1.082       .  S
C1728      C1729   1.438   1_655  A
C1729      H1732   1.079       .  S
O1733     Ni1739   1.934       .  S
O1733      C1754   1.286       .  A
O1734     Ni1757   1.874       .  S
O1734      C1743   1.261       .  A
O1735     Ni1739   1.895       .  S
O1735     Ni1757   1.855       .  S
O1735     Ni1751   1.914       .  S
O1735      H1758   0.967       .  S
C1736      O1753   1.275       .  A
C1736      O1745   1.288       .  A
O1737     Ni1756   1.957       .  S
O1737      C1743   1.293       .  A
O1738     Ni1756   1.947       .  S
O1738      C1740   1.270       .  A
Ni1739     O1742   1.942       .  S
Ni1739     O1744   1.940       .  S
C1740      O1750   1.266       .  A
O1741     Ni1757   1.909       .  S
O1741      C1747   1.284       .  A
O1742      C1747   1.287       .  A
O1744      C1746   1.269       .  A
O1745     Ni1756   1.956       .  S
C1746      O1752   1.270       .  A
C1746      C1768   1.512       .  S
C1747      C1759   1.483       .  S
H1748      O1749   0.966       .  S
O1749     Ni1757   1.920       .  S
O1749     Ni1751   1.862       .  S
O1749     Ni1756   1.908       .  S
O1750     Ni1751   1.914       .  S
Ni1751     O1755   1.873       .  S
Ni1751     O1753   1.889       .  S
O1752     Ni1757   1.925       .  S
C1754      O1755   1.255       .  A
C1754      C1806   1.466       .  S
C1759      C1760   1.403       .  A
C1759      C1764   1.405       .  A
C1760      C1761   1.398       .  A
C1760      H1765   1.082       .  S
C1761      C1777   1.508       .  S
C1761      C1762   1.399       .  A
C1762      C1763   1.432       .  A
C1762      H1766   1.081       .  S
C1763      C1869   1.506       .  S
C1763      C1764   1.411       .  A
C1764      H1767   1.080       .  S
C1768      C1769   1.424       .  A
C1768      C1773   1.409       .  A
C1769      C1770   1.427       .  A
C1769      H1774   1.081       .  S
C1770      C1880   1.501       .  S
C1770      C1771   1.400       .  A
C1771      C1772   1.378       .  A
C1771      H1775   1.081       .  S
C1772      C1831   1.488       .  S
C1772      C1773   1.413       .  A
C1773      H1776   1.080       .  S
C1777      C1778   1.399       .  A
C1778      C1779   1.369       .  A
C1778      H1783   1.083       .  S
C1780      C1781   1.404       .  A
C1780      H1784   1.080       .  S
C1781      C1790   1.515       .  S
C1781      C1782   1.441       .  A
C1782      H1785   1.079       .  S
C1786      C1787   1.416       .  A
C1786      C1791   1.409       .  A
C1787      C1788   1.427       .  A
C1787      H1792   1.081       .  S
C1788      C1896   1.511       .  S
C1788      C1789   1.415       .  A
C1789      C1790   1.388       .  A
C1789      H1793   1.072       .  S
C1790      C1791   1.411       .  A
C1791      H1794   1.081       .  S
C1795      C1796   1.411       .  A
C1795      C1800   1.423       .  A
C1796      C1797   1.407       .  A
C1796      H1801   1.079       .  S
C1797      C1804   1.512       .  S
C1797      C1798   1.396       .  A
C1798      C1799   1.415       .  A
C1798      H1802   1.074       .  S
C1799      C1907   1.516       .  S
C1799      C1800   1.419       .  A
C1800      H1803   1.082       .  S
C1804      C1805   1.412       .  A
C1804      C1809   1.429       .  A
C1805      C1806   1.393       .  A
C1805      H1810   1.078       .  S
C1806      C1807   1.383       .  A
C1807      C1808   1.400       .  A
C1807      H1811   1.082       .  S
C1808      C1815   1.497       .  S
C1808      C1809   1.434       .  A
C1809      H1812   1.076       .  S
C1813      C1814   1.412       .  A
C1813      C1818   1.432       .  A
C1814      C1815   1.417       .  A
C1814      H1819   1.081       .  S
C1815      C1816   1.380       .  A
C1816      C1817   1.400       .  A
C1816      H1820   1.074       .  S
C1817      C1851   1.510       .  S
C1817      C1818   1.425       .  A
C1818      H1821   1.082       .  S
C1822      C1823   1.400       .  A
C1822      C1827   1.412       .  A
C1823      C1824   1.404       .  A
C1823      H1828   1.080       .  S
C1824      C1835   1.500       .  S
C1824      C1825   1.397       .  A
C1825      C1826   1.421       .  A
C1825      H1829   1.080       .  S
C1826      C1860   1.512       .  S
C1826      C1827   1.415       .  A
C1827      H1830   1.080       .  S
C1831      C1832   1.397       .  A
C1831      C1836   1.429       .  A
C1832      C1833   1.382       .  A
C1832      H1837   1.080       .  S
C1834      C1835   1.410       .  A
C1834      H1838   1.080       .  S
C1836      H1839   1.082       .  S
C1840      C1878   1.505       .  S
C1840      C1841   1.400       .  A
C1841      H1846   1.083       .  S
C1842      C1843   1.379       .  A
C1843      C1844   1.398       .  A
C1843      H1847   1.082       .  S
C1844      C1862   1.504       .  S
C1844      C1845   1.434       .  A
C1845      H1848   1.081       .  S
C1849      C1850   1.417       .  A
C1849      C1854   1.410       .  A
C1850      C1851   1.413       .  A
C1850      H1855   1.082       .  S
C1851      C1852   1.422       .  A
C1852      C1853   1.393       .  A
C1852      H1856   1.082       .  S
C1853      C1912   1.511       .  S
C1853      C1854   1.413       .  A
C1854      H1857   1.079       .  S
C1858      C1859   1.419       .  A
C1858      C1863   1.409       .  A
C1859      C1860   1.425       .  A
C1859      H1864   1.080       .  S
C1860      C1861   1.409       .  A
C1861      C1862   1.392       .  A
C1861      H1865   1.077       .  S
C1862      C1863   1.413       .  A
C1863      H1866   1.082       .  S
C1867      C1868   1.425       .  A
C1867      C1872   1.412       .  A
C1868      C1869   1.430       .  A
C1868      H1873   1.080       .  S
C1869      C1870   1.398       .  A
C1870      C1871   1.379       .  A
C1870      H1874   1.081       .  S
C1871      C1885   1.486       .  S
C1871      C1872   1.410       .  A
C1872      H1875   1.081       .  S
C1876      C1877   1.408       .  A
C1876      C1881   1.406       .  A
C1877      C1878   1.396       .  A
C1877      H1882   1.082       .  S
C1878      C1879   1.396       .  A
C1879      C1880   1.427       .  A
C1879      H1883   1.081       .  S
C1880      C1881   1.412       .  A
C1881      H1884   1.081       .  S
C1885      C1886   1.398       .  A
C1885      C1890   1.428       .  A
C1886      C1887   1.384       .  A
C1886      H1891   1.080       .  S
C1888      C1889   1.411       .  A
C1888      H1892   1.078       .  S
C1889      C1898   1.513       .  S
C1890      H1893   1.077       .  S
C1894      C1895   1.409       .  A
C1894      C1899   1.403       .  A
C1895      C1896   1.411       .  A
C1895      H1900   1.081       .  S
C1896      C1897   1.418       .  A
C1897      C1898   1.400       .  A
C1897      H1901   1.069       .  S
C1898      C1899   1.409       .  A
C1899      H1902   1.078       .  S
C1903      C1904   1.405       .  A
C1903      C1908   1.426       .  A
C1904      C1905   1.419       .  A
C1904      H1909   1.079       .  S
C1905      C1916   1.506       .  S
C1905      C1906   1.387       .  A
C1906      C1907   1.414       .  A
C1906      H1910   1.080       .  S
C1907      C1908   1.425       .  A
C1908      H1911   1.082       .  S
C1912      C1913   1.407       .  A
C1912      C1917   1.439       .  A
C1913      C1914   1.387       .  A
C1913      H1918   1.078       .  S
C1914      C1915   1.380       .  A
C1915      C1916   1.399       .  A
C1915      H1919   1.081       .  S
C1916      C1917   1.441       .  A
C1917      H1920   1.082       .  S
