geometry optimzed in LAMMPS
_audit_creation_date              2020-11-30 
_audit_creation_method            'lammps2cif' 
_symmetry_space_group_name_H-M    'P1' 
_symmetry_Int_Tables_number       1 
_symmetry_cell_setting            triclinic 
loop_ 
_symmetry_equiv_pos_as_xyz 
  x,y,z 
_cell_length_a                    45.38957712 
_cell_length_b                    45.935072818779354 
_cell_length_c                    19.63599210406321 
_cell_angle_alpha                 90.99620794432322 
_cell_angle_beta                  89.4813121291128 
_cell_angle_gamma                 110.71392580322527 
loop_ 
_atom_site_label 
_atom_site_type_symbol 
_atom_site_fract_x 
_atom_site_fract_y 
_atom_site_fract_z 
_atom_site_charge 
C1          C  0.31586159  0.18518102  0.03251034     0.29700
C2          C  0.31563323  0.18405450  0.37633327     0.29700
C3          C  0.31665928  0.15640165  0.99067206    -0.06500
C4          C  0.28697240  0.18828609  0.99338036    -0.07300
C5          C  0.34120275  0.21177712  0.99144837    -0.07100
C6          C  0.31661570  0.15583823  0.41720526    -0.06500
C7          C  0.28619155  0.18693134  0.41691982    -0.07200
C8          C  0.34298963  0.20932963  0.41688073    -0.07100
C9          C  0.31883669  0.12827619  0.39773559    -0.32500
N10         N  0.32255089  0.11328447  0.45394275     0.14000
C11         C  0.31845516  0.12865569  0.00926190    -0.32500
H12         H  0.32247327  0.12234279  0.06022692     0.15900
C13         C  0.25479022  0.17475102  0.39877498    -0.31500
N14         N  0.23742389  0.17063422  0.95721992     0.12700
C15         C  0.25596923  0.17734495  0.01299293    -0.31500
C16         C  0.35878302  0.23886638  0.39483543    -0.31800
N17         N  0.35851388  0.25943765  0.94417383     0.15200
H18         H  0.36755256  0.24506559  0.34430685     0.15800
C19         C  0.34696954  0.24335624  0.00060694    -0.31800
H20         H  0.33669754  0.25316012  0.03948032     0.15800
H21         H  0.24750048  0.17025289  0.06394330     0.15800
H22         H  0.32247252  0.12166787  0.34601924     0.15900
H23         H  0.24612054  0.16695069  0.34803407     0.15800
C24         C  0.31680939  0.18395897  0.28259585     0.29700
C25         C  0.31771633  0.18385987  0.12642592     0.29700
C26         C  0.34627789  0.18112720  0.24213796    -0.06500
C27         C  0.29198525  0.15776200  0.24066125    -0.07300
C28         C  0.31296826  0.21211772  0.24268444    -0.07100
C29         C  0.34648095  0.18043338  0.16687021    -0.06500
C30         C  0.29156835  0.15816571  0.16651020    -0.07200
C31         C  0.31701110  0.21274243  0.16800446    -0.07100
C32         C  0.36751570  0.16602892  0.14846962    -0.32500
N33         N  0.38004191  0.15849388  0.20513941     0.14000
C34         C  0.36742881  0.16732964  0.26123917    -0.32500
H35         H  0.37084610  0.16100133  0.31257732     0.15900
C36         C  0.26916262  0.13057342  0.14644754    -0.31500
N37         N  0.25691624  0.11345073  0.20247667     0.12700
C38         C  0.27152352  0.12940335  0.25890821    -0.31500
C39         C  0.33900983  0.24161818  0.15809798    -0.31800
N40         N  0.34188007  0.25995305  0.21256596     0.13200
H41         H  0.35868584  0.24575170  0.12385324     0.15800
C42         C  0.32470725  0.24292613  0.26349438    -0.31800
H43         H  0.32374460  0.25174778  0.31422685     0.15800
H44         H  0.26644364  0.12137670  0.31066841     0.15800
H45         H  0.37115037  0.15871011  0.09745730     0.15900
H46         H  0.26144167  0.12400676  0.09463964     0.15800
N47         N  0.05730039  0.06657020  0.44515848    -0.06400
N48         N  0.08209478  0.09299101  0.44886457    -0.58500
N49         N  0.06026589  0.06418682  0.30448059    -0.06100
N50         N  0.08613757  0.08907857  0.29806958    -0.60600
N51         N  0.03582685  0.07314705  0.30740566    -0.05700
N52         N  0.04424614  0.10278525  0.29467463    -0.58500
N53         N  0.06812494  0.04343186  0.44758614    -0.05300
N54         N  0.09854035  0.05354131  0.45995553    -0.61000
C55         C  0.10733335  0.08455747  0.46124494     0.95800
C56         C  0.07560567  0.11304350  0.29197313     0.95600
N57         N  0.52354028  0.45343737  0.29104529    -0.06600
N58         N  0.52905008  0.43144000  0.25485263    -0.59100
N59         N  0.04382001  0.48626877  0.39532252    -0.04700
N60         N  0.07099374  0.48153220  0.39144223    -0.60300
N61         N  0.01996752  0.45921111  0.39332682    -0.06600
N62         N  0.03154658  0.43648847  0.38535375    -0.59400
N63         N  0.05094707  0.97184441  0.28836986    -0.04300
N64         N  0.07268079  0.96627225  0.25087896    -0.60400
Mn65       Mn  0.05272308  0.01528660  0.35395627     1.18400
C66         C  0.55627734  0.95323101  0.21051520     0.97900
C67         C  0.06322905  0.45052246  0.38341346     0.98500
N68         N  0.45681058  0.05896708  0.36044676    -0.06600
N69         N  0.44468512  0.08118315  0.36364980    -0.62900
N70         N  0.43801562  0.53257352  0.47237879    -0.05400
N71         N  0.41863810  0.53579814  0.00607587    -0.63600
N72         N  0.97338028  0.05128918  0.47510827    -0.06100
N73         N  0.96233827  0.07237701  0.00732103    -0.63200
N74         N  0.43375046  0.03142174  0.36024089    -0.05000
N75         N  0.40617470  0.03469088  0.36085073    -0.63900
Mn76       Mn  0.00809086  0.06036720  0.39724422     1.10700
C77         C  0.41320522  0.06573082  0.36378320     0.99100
C78         C  0.43534504  0.56087605  0.04404573     0.99200
N79         N  0.45306686  0.42978042  0.45717959    -0.06100
N80         N  0.44468070  0.39997909  0.46715731    -0.61500
N81         N  0.41792354  0.45984315  0.31470711    -0.05500
N82         N  0.38737293  0.44894143  0.30539881    -0.58200
N83         N  0.42949834  0.43727366  0.31402550    -0.06800
N84         N  0.40549584  0.41027960  0.31029197    -0.61100
N85         N  0.42846517  0.43868551  0.45899816    -0.05800
N86         N  0.40248777  0.41364745  0.46408921    -0.58300
Mn87       Mn  0.48219272  0.44867735  0.36444695     1.20200
Mn88       Mn  0.43599990  0.48863469  0.40772740     1.10100
Cl89       Cl  0.50201147  0.00722887  0.38065565    -0.86200
C90         C  0.41326699  0.38968397  0.46908496     0.96100
C91         C  0.37955665  0.41802545  0.30212259     0.95900
N92         N  0.08157928  0.04617176  0.18655845    -0.06400
N93         N  0.10567974  0.04685676  0.22369448    -0.58500
N94         N  0.04826484  0.08117341  0.07875279    -0.06100
N95         N  0.05120988  0.10636129  0.04462952    -0.60600
N96         N  0.04484537  0.08606346  0.14335757    -0.05700
N97         N  0.04724616  0.11513267  0.15480908    -0.58500
N98         N  0.08702897  0.04228934  0.12223554    -0.05300
N99         N  0.11568828  0.04171904  0.11367694    -0.61000
C100        C  0.12739879  0.04539207  0.17775893     0.95800
C101        C  0.05292435  0.12802224  0.09262679     0.95600
N102        N  0.46158632  0.50949143  0.09082757    -0.06600
N103        N  0.43869934  0.51989048  0.60393598    -0.59100
N104        N  0.03396991  0.46696901  0.01288023    -0.04700
N105        N  0.05568457  0.45403948  0.01949188    -0.60300
N106        N  0.00575885  0.44459258  0.00871320    -0.06600
N107        N  0.00867828  0.41689376  0.01174660    -0.59400
N108        N  0.99398716  0.03107834  0.08838015    -0.04300
N109        N  0.98783043  0.05763862  0.60809680    -0.60400
Mn110      Mn  0.04315868  0.03020354  0.05046351     1.18400
C111        C  0.45145613  0.05115858  0.59926387     0.97900
C112        C  0.03979651  0.42295954  0.01921913     0.98500
N113        N  0.48025653  0.05195353  0.23596094    -0.06600
N114        N  0.47443639  0.07819624  0.23174227    -0.62900
N115        N  0.49714587  0.47397505  0.17516522    -0.05400
N116        N  0.50483868  0.44927178  0.16104700    -0.63600
N117        N  0.02648207  0.99322477  0.17377183    -0.06100
N118        N  0.05059735  0.98480527  0.15701997    -0.63200
N119        N  0.45366471  0.02762005  0.23452137    -0.05000
N120        N  0.42959399  0.03760592  0.22842393    -0.63900
Mn121      Mn  0.03039025  0.04268556  0.21205347     1.10700
C122        C  0.44275509  0.06924835  0.22716167     0.99100
C123        C  0.53675612  0.45989632  0.15835981     0.99200
N124        N  0.44562347  0.41771260  0.12102662    -0.06100
N125        N  0.44259789  0.38845407  0.10951006    -0.61500
N126        N  0.40408200  0.46108742  0.14546807    -0.05500
N127        N  0.37647302  0.46355593  0.15630093    -0.58200
N128        N  0.40767721  0.45557126  0.08098583    -0.06800
N129        N  0.38295705  0.45489206  0.04600815    -0.61100
N130        N  0.44322552  0.42296530  0.18591041    -0.05800
N131        N  0.44053673  0.39779563  0.22001236    -0.58300
Mn132      Mn  0.45819337  0.46057200  0.05113287     1.20200
Mn133      Mn  0.44835235  0.47440711  0.21486844     1.10100
Cl134      Cl  0.49698995  0.00654377  0.12641549    -0.86200
C135        C  0.43805128  0.37582059  0.17208339     0.96100
C136        C  0.36316865  0.45890619  0.09397883     0.95900
C137        C  0.17093224  0.31961743  0.24238584     0.29700
C138        C  0.17301400  0.31937167  0.39878538     0.29700
C139        C  0.16429015  0.34598258  0.28695387    -0.06500
C140        C  0.14941246  0.29051346  0.28375739    -0.07300
C141        C  0.20188054  0.32137041  0.28027200    -0.07100
C142        C  0.16595385  0.34594042  0.36138764    -0.06500
C143        C  0.14782133  0.29203116  0.35858992    -0.07200
C144        C  0.20283445  0.32092590  0.35472896    -0.07100
C145        C  0.15486281  0.36841143  0.38522231    -0.32500
N146        N  0.14559356  0.38132495  0.33193963     0.14000
C147        C  0.15180084  0.36865348  0.27283143    -0.32500
H148        H  0.14610157  0.37458530  0.22332437     0.15900
C149        C  0.13440926  0.26213916  0.37988307    -0.31500
N150        N  0.13517297  0.24266206  0.32906718     0.12700
C151        C  0.14591944  0.25954089  0.27314771    -0.31500
C152        C  0.23400998  0.32843704  0.37094898    -0.31800
N153        N  0.25159141  0.33321210  0.31312970     0.13200
H154        H  0.24361948  0.33363190  0.42143141     0.15800
C155        C  0.23234391  0.32838500  0.25844343    -0.31800
H156        H  0.24048363  0.33313540  0.20671937     0.15800
H157        H  0.15669292  0.25082950  0.23339401     0.15800
H158        H  0.15128080  0.37333684  0.43803742     0.15900
H159        H  0.12745493  0.25491211  0.43064883     0.15800
C160        C  0.17392419  0.31802230  0.49193212     0.29700
C161        C  0.16927897  0.31957288  0.14779552     0.29700
C162        C  0.14324253  0.31542325  0.53245493    -0.06500
C163        C  0.18225378  0.29173057  0.53049358    -0.07300
C164        C  0.19606430  0.34591396  0.53463973    -0.07100
C165        C  0.14046255  0.32066515  0.10426726    -0.06500
C166        C  0.17272091  0.29121360  0.10745037    -0.07200
C167        C  0.19457228  0.34590714  0.10839972    -0.07100
C168        C  0.11637834  0.33140563  0.11936492    -0.32500
N169        N  0.10219419  0.32639532  0.56909865     0.14000
C170        C  0.11718691  0.32124843  0.51297807    -0.32500
H171        H  0.11197967  0.32604698  0.46180700     0.15900
C172        C  0.15197360  0.26167081  0.11680419    -0.31500
N173        N  0.15857851  0.24244906  0.56045542     0.12700
C174        C  0.17323743  0.26101468  0.50895946    -0.31500
C175        C  0.21918603  0.37102464  0.13001701    -0.31800
N176        N  0.23578887  0.38523696  0.57526755     0.13200
H177        H  0.22636928  0.37739954  0.18222387     0.15800
C178        C  0.22127127  0.37132969  0.51728391    -0.31800
H179        H  0.23055574  0.37740675  0.46644195     0.15800
H180        H  0.17337941  0.25303810  0.45720452     0.15800
H181        H  0.10986296  0.33713659  0.16931151     0.15900
H182        H  0.13204808  0.25653044  0.15082256     0.15800
C183        C  0.07038495  0.18263727  0.06255614    -0.20600
C184        C  0.07804033  0.15763976  0.08453658    -0.07100
C185        C  0.10981705  0.16035530  0.09300758     0.13700
C186        C  0.13339546  0.18859299  0.07877260    -0.20600
C187        C  0.12600518  0.21390957  0.05716449    -0.07200
C188        C  0.09398268  0.21126618  0.05122617     0.13700
C189        C  0.08360711  0.23843561  0.03906402    -0.24000
H190        H  0.04584859  0.18011871  0.05673322     0.15000
H191        H  0.16385031  0.18949935  0.58797409     0.15000
C192        C  0.11908503  0.13382387  0.11751661    -0.23900
H193        H  0.06877783  0.24099502  0.08239938     0.05200
H194        H  0.06946468  0.23443394  0.99174175     0.08500
H195        H  0.10349911  0.26060659  0.03490577     0.08500
H196        H  0.11240250  0.12591548  0.67228997     0.08400
H197        H  0.14499215  0.14066469  0.12335565     0.08400
H198        H  0.11401671  0.11262824  0.58668058     0.05200
C199        C  0.32209155  0.40951426  0.07337611    -0.20600
C200        C  0.33010755  0.44118043  0.08809321    -0.07100
C201        C  0.30682855  0.45409718  0.10160356     0.13700
C202        C  0.27538338  0.43519209  0.09483307    -0.20600
C203        C  0.26759705  0.40377834  0.07845260    -0.07200
C204        C  0.29088145  0.39029247  0.07100120     0.13700
C205        C  0.28296058  0.35569506  0.06369209    -0.24000
H206        H  0.34036615  0.39969504  0.06582082     0.15000
H207        H  0.25680032  0.44450219  0.10369101     0.15000
C208        C  0.31507991  0.48722714  0.12443429    -0.23900
H209        H  0.30437697  0.34939318  0.06269435     0.05200
H210        H  0.26907861  0.34739291  0.51602117     0.08500
H211        H  0.26827064  0.34361982  0.10707139     0.08500
H212        H  0.33052350  0.50287438  0.08593579     0.08400
H213        H  0.32733963  0.49020430  0.17402231     0.08400
H214        H  0.29384615  0.49365583  0.13174337     0.05200
C215        C  0.08706613  0.41101089  0.04892409    -0.20600
C216        C  0.05500639  0.39965211  0.03135983    -0.07100
C217        C  0.03916610  0.36697716  0.02487486     0.13700
C218        C  0.05563557  0.34684301  0.03737156    -0.20600
C219        C  0.08741638  0.35845823  0.05531321    -0.07200
C220        C  0.10349697  0.39090257  0.06008280     0.13700
C221        C  0.13826231  0.40442508  0.07487704    -0.24000
H222        H  0.09964466  0.43588232  0.05312681     0.15000
H223        H  0.04194949  0.31239069  0.54645762     0.15000
C224        C  0.00556651  0.35300122  0.00167950    -0.23900
H225        H  0.14731728  0.43027176  0.07422988     0.05200
H226        H  0.15156420  0.39617169  0.03626151     0.08500
H227        H  0.14298523  0.39729133  0.12579974     0.08500
H228        H  0.00232208  0.35269407  0.46127280     0.08400
H229        H  0.98974153  0.35884987  0.03847627     0.08400
H230        H  0.99608074  0.31907189  0.51246162     0.05200
C231        C  0.09563159  0.19449797  0.36411681    -0.20600
C232        C  0.12463119  0.20944607  0.33285493    -0.07100
C233        C  0.14020681  0.19151416  0.29895972     0.13700
C234        C  0.12429999  0.15958717  0.28974261    -0.20600
C235        C  0.09355278  0.14523138  0.31382976    -0.07200
C236        C  0.07974595  0.16267866  0.35560852     0.13700
C237        C  0.04808655  0.14888692  0.39061487    -0.24000
H238        H  0.08413683  0.20833154  0.39091272     0.15000
H239        H  0.13582787  0.14631883  0.26159266     0.15000
C240        C  0.17345069  0.20498483  0.27248946    -0.23900
H241        H  0.04370768  0.16560272  0.42728823     0.05200
H242        H  0.04702404  0.12811870  0.41981719     0.08500
H243        H  0.02872698  0.14273710  0.35284681     0.08500
H244        H  0.18611695  0.22866938  0.29346822     0.08400
H245        H  0.17322926  0.20549363  0.21600333     0.08400
H246        H  0.18690741  0.19012747  0.28765914     0.05200
C247        C  0.33999781  0.36399787  0.31157393    -0.20600
C248        C  0.34629813  0.39622260  0.30630462    -0.07100
C249        C  0.32042628  0.40701228  0.30546403     0.13700
C250        C  0.28974193  0.38544190  0.30724605    -0.20600
C251        C  0.28375715  0.35362852  0.31089898    -0.07200
C252        C  0.30884616  0.34258672  0.31337766     0.13700
C253        C  0.30235329  0.30824905  0.31644207    -0.24000
H254        H  0.35938482  0.35547930  0.31335210     0.15000
H255        H  0.26985473  0.39328777  0.30625191     0.15000
C256        C  0.32404165  0.44098443  0.30396276    -0.23900
H257        H  0.32445592  0.30345040  0.32245171     0.05200
H258        H  0.29040443  0.29669701  0.26900078     0.08500
H259        H  0.28661674  0.29804855  0.35997862     0.08500
H260        H  0.33661550  0.45183064  0.25716156     0.08400
H261        H  0.33679004  0.45330331  0.35001378     0.08400
H262        H  0.30096066  0.44430405  0.30373223     0.05200
C263        C  0.07289535  0.40168167  0.35360032    -0.20600
C264        C  0.08562698  0.43391669  0.36735954    -0.07100
C265        C  0.11895473  0.44889123  0.36589908     0.13700
C266        C  0.13821526  0.43117400  0.35229561    -0.20600
C267        C  0.12523434  0.39913358  0.33913415    -0.07200
C268        C  0.09222541  0.38422368  0.33975530     0.13700
C269        C  0.07744280  0.34966162  0.32724249    -0.24000
H270        H  0.04758311  0.38984265  0.35444767     0.15000
H271        H  0.16362633  0.44222294  0.35266233     0.15000
C272        C  0.13469768  0.48333130  0.37916861    -0.23900
H273        H  0.05133795  0.34152944  0.33043131     0.05200
H274        H  0.08577936  0.33702338  0.36578583     0.08500
H275        H  0.08392985  0.34364446  0.27571256     0.08500
H276        H  0.12843141  0.48944743  0.43089279     0.08400
H277        H  0.12730961  0.49657032  0.34019435     0.08400
H278        H  0.16077176  0.49072068  0.37656133     0.05200
C279        C  0.37849854  0.10464528  0.20133036    -0.20600
C280        C  0.39610806  0.13649307  0.20633456    -0.07100
C281        C  0.42891533  0.14623618  0.21489253     0.13700
C282        C  0.44340705  0.12383910  0.21987874    -0.20600
C283        C  0.42578810  0.09162671  0.21678543    -0.07200
C284        C  0.39279335  0.08209148  0.20613062     0.13700
C285        C  0.37223795  0.04840262  0.19937460    -0.24000
H286        H  0.35324947  0.09751402  0.19445275     0.15000
H287        H  0.46864273  0.13168364  0.22755348     0.15000
C288        C  0.44842170  0.18033937  0.21900985    -0.23900
H289        H  0.34732427  0.04567537  0.18981600     0.05200
H290        H  0.37266349  0.03591312  0.24688773     0.08500
H291        H  0.38053700  0.03753456  0.15590232     0.08500
H292        H  0.44059268  0.19125756  0.26309901     0.08400
H293        H  0.44554316  0.19183299  0.17152564     0.08400
H294        H  0.47384366  0.18428455  0.22541097     0.05200
C295        C  0.42160827  0.32108723  0.20439584    -0.20600
C296        C  0.41339376  0.34583440  0.18231846    -0.07100
C297        C  0.38140302  0.34269826  0.17657206     0.13700
C298        C  0.35824016  0.31463544  0.19394505    -0.20600
C299        C  0.36614288  0.28969699  0.21596842    -0.07200
C300        C  0.39828255  0.29256922  0.21939491     0.13700
C301        C  0.40875135  0.26562061  0.23375924    -0.24000
H302        H  0.44626627  0.32377942  0.20821920     0.15000
H303        H  0.33366287  0.31130362  0.18616428     0.15000
C304        C  0.37142190  0.36852870  0.15089953    -0.23900
H305        H  0.42279413  0.26195238  0.19002168     0.05200
H306        H  0.38884333  0.24357060  0.24128251     0.08500
H307        H  0.42370751  0.27077279  0.28000716     0.08500
H308        H  0.38074313  0.37498750  0.09900088     0.08400
H309        H  0.38060744  0.38935884  0.18405474     0.08400
H310        H  0.34540588  0.36165344  0.14957580     0.05200
C311        C  0.18236060  0.05120192  0.14666720    -0.20600
C312        C  0.16140597  0.05764114  0.19247399    -0.07100
C313        C  0.17365345  0.07835810  0.24799366     0.13700
C314        C  0.20582993  0.09256008  0.25489305    -0.20600
C315        C  0.22652001  0.08938593  0.20482331    -0.07200
C316        C  0.21497552  0.06710105  0.15186114     0.13700
C317        C  0.23634198  0.05968722  0.10080414    -0.24000
H318        H  0.17326626  0.03447782  0.10553275     0.15000
H319        H  0.21448709  0.10964768  0.29543132     0.15000
C320        C  0.15373795  0.08987449  0.29470939    -0.23900
H321        H  0.23150808  0.03424032  0.09994243     0.05200
H322        H  0.26159117  0.07138326  0.11357622     0.08500
H323        H  0.23200687  0.06688286  0.04931309     0.08500
H324        H  0.13772767  0.07060318  0.32525222     0.08400
H325        H  0.14064567  0.10052275  0.26267745     0.08400
H326        H  0.16785305  0.10850855  0.33011290     0.05200
C327        C  0.37637167  0.11751043  0.45303771    -0.20600
C328        C  0.34466407  0.09821616  0.44988469    -0.07100
C329        C  0.33574850  0.06826450  0.42198209     0.13700
C330        C  0.35891504  0.05839483  0.39440258    -0.20600
C331        C  0.39063931  0.07844982  0.39279533    -0.07200
C332        C  0.39960304  0.10861475  0.42256080     0.13700
C333        C  0.43263790  0.13238190  0.42002232    -0.24000
H334        H  0.38227878  0.14105682  0.47290299     0.15000
H335        H  0.35190833  0.03522431  0.37199074     0.15000
C336        C  0.30161678  0.04764097  0.41881702    -0.23900
H337        H  0.43396266  0.15512640  0.44273787     0.05200
H338        H  0.44065977  0.13665088  0.36637405     0.08500
H339        H  0.44904272  0.12447586  0.44923932     0.08500
H340        H  0.28825323  0.05872981  0.38786120     0.08400
H341        H  0.28785776  0.04262582  0.95525190     0.08400
H342        H  0.29856599  0.02455234  0.39551767     0.05200
C343        C  0.36484766  0.34274266  0.47124742    -0.20600
C344        C  0.39564680  0.35731536  0.44787123    -0.07100
C345        C  0.41027425  0.33973164  0.40874587     0.13700
C346        C  0.39613455  0.30783549  0.90451992    -0.20600
C347        C  0.36684547  0.29246847  0.43547577    -0.07200
C348        C  0.34999715  0.31038842  0.46510831     0.13700
C349        C  0.31648460  0.29646443  0.48967385    -0.24000
H350        H  0.35266298  0.35646203  0.49601169     0.15000
H351        H  0.40829438  0.29418735  0.87938745     0.15000
C352        C  0.44154703  0.35414782  0.87153255    -0.23900
H353        H  0.30258559  0.31017424  0.47050889     0.05200
H354        H  0.31588021  0.29725447  0.54621023     0.08500
H355        H  0.30478403  0.27223796  0.47073828     0.08500
H356        H  0.46152203  0.36170812  0.90765320     0.08400
H357        H  0.44116120  0.37399912  0.84079608     0.08400
H358        H  0.44617176  0.33715853  0.83608527     0.05200
C359        C  0.14800210  0.13803755  0.45275098    -0.20600
C360        C  0.14107665  0.10582176  0.46014893    -0.07100
C361        C  0.16673325  0.09471808  0.46462777     0.13700
C362        C  0.20027490  0.11771406  0.96259216    -0.20600
C363        C  0.20418032  0.14784689  0.45634603    -0.07200
C364        C  0.17931480  0.15906054  0.45096159     0.13700
C365        C  0.18630989  0.19337363  0.44457601    -0.24000
H366        H  0.12892276  0.14689759  0.44875713     0.15000
H367        H  0.22042137  0.11026906  0.96390693     0.15000
C368        C  0.16643827  0.06186542  0.96407741    -0.23900
H369        H  0.16441720  0.19851615  0.43823056     0.05200
H370        H  0.20181731  0.20243012  0.40008837     0.08500
H371        H  0.19878065  0.20576683  0.49078934     0.08500
H372        H  0.15469209  0.04990529  0.91688842     0.08400
H373        H  0.15282703  0.05032640  0.00911742     0.08400
H374        H  0.18959364  0.05879870  0.96604471     0.05200
C375        C  0.31521047  0.18508221  0.53251905     0.29700
C376        C  0.31579091  0.18465996  0.87649121     0.29700
C377        C  0.31707151  0.15652840  0.49131544    -0.06500
C378        C  0.28593572  0.18704149  0.49254461    -0.07300
C379        C  0.34012408  0.21194764  0.49128375    -0.07100
C380        C  0.31600723  0.15599787  0.91666758    -0.06500
C381        C  0.28695887  0.18837624  0.91775091    -0.07200
C382        C  0.34363981  0.20941592  0.91677743    -0.07100
C383        C  0.31702355  0.12805966  0.89644160    -0.32500
N384        N  0.32026646  0.11248026  0.95209791     0.14000
C385        C  0.31997917  0.12934597  0.51063138    -0.32500
H386        H  0.32371986  0.12317591  0.56186798     0.15900
C387        C  0.25554327  0.17673047  0.90023409    -0.31500
N388        N  0.23637021  0.16849114  0.45538775     0.12700
C389        C  0.25476779  0.17558078  0.51151443    -0.31500
C390        C  0.35919355  0.23907105  0.89499452    -0.31800
N391        N  0.35750837  0.25939150  0.44310717     0.15200
H392        H  0.36726832  0.24546300  0.84411517     0.15800
C393        C  0.34538868  0.24347340  0.49946940    -0.31800
H394        H  0.33463128  0.25327227  0.53748681     0.15800
H395        H  0.24613073  0.16885019  0.56251357     0.15800
H396        H  0.32042734  0.12158065  0.84447824     0.15900
H397        H  0.24661345  0.16882581  0.84970576     0.15800
C398        C  0.31665316  0.18459095  0.78280425     0.29700
C399        C  0.31728254  0.18418665  0.62658780     0.29700
C400        C  0.34614209  0.18200219  0.74237110    -0.06500
C401        C  0.29195738  0.15818052  0.74118669    -0.07300
C402        C  0.31253385  0.21256018  0.74276543    -0.07100
C403        C  0.34633681  0.18127649  0.66704306    -0.06500
C404        C  0.29148398  0.15834465  0.66702779    -0.07200
C405        C  0.31606425  0.21299206  0.66797841    -0.07100
C406        C  0.36711665  0.16648742  0.64900719    -0.32500
N407        N  0.37929736  0.15864352  0.70580128     0.14000
C408        C  0.36686691  0.16777168  0.76171001    -0.32500
H409        H  0.36993424  0.16122315  0.81308220     0.15900
C410        C  0.26872468  0.13090859  0.64741100    -0.31500
N411        N  0.25622683  0.11422446  0.70382367     0.12700
C412        C  0.27094740  0.13022785  0.76002810    -0.31500
C413        C  0.33709800  0.24224409  0.65701989    -0.31800
N414        N  0.33991999  0.26074120  0.71129916     0.13200
H415        H  0.35666778  0.24669615  0.62244300     0.15800
C416        C  0.32393245  0.24343498  0.76325557    -0.31800
H417        H  0.32376699  0.25212394  0.81436834     0.15800
H418        H  0.26533025  0.12263875  0.81195050     0.15800
H419        H  0.37095966  0.15928040  0.59804769     0.15900
H420        H  0.26086791  0.12416139  0.59573783     0.15800
N421        N  0.06065109  0.06492870  0.95027044    -0.06400
N422        N  0.08456678  0.09187047  0.95533745    -0.58500
N423        N  0.05920175  0.06485187  0.80555558    -0.06100
N424        N  0.08457866  0.09040037  0.80219038    -0.60600
N425        N  0.03422448  0.07298760  0.80793958    -0.05700
N426        N  0.04170332  0.10281654  0.79970135    -0.58500
N427        N  0.07223165  0.04242948  0.94764129    -0.05300
N428        N  0.10279712  0.05318139  0.95693335    -0.61000
C429        C  0.11045464  0.08403487  0.96300285     0.95800
C430        C  0.07307587  0.11383707  0.79843692     0.95600
N431        N  0.52298650  0.45423701  0.79106116    -0.06600
N432        N  0.52788215  0.43187630  0.75501186    -0.59100
N433        N  0.05341710  0.48381492  0.88984094    -0.04700
N434        N  0.08034713  0.47903689  0.89243138    -0.60300
N435        N  0.02959432  0.45681825  0.88554752    -0.06600
N436        N  0.04076133  0.43379477  0.88488523    -0.59400
N437        N  0.05121929  0.97097514  0.78844799    -0.04300
N438        N  0.07276628  0.96634169  0.74870205    -0.60400
Mn439      Mn  0.05258836  0.01466155  0.85409627     1.18400
C440        C  0.55554113  0.95394519  0.71072273     0.97900
C441        C  0.07239177  0.44796988  0.88864748     0.98500
N442        N  0.45546222  0.05924282  0.86072140    -0.06600
N443        N  0.44317698  0.08133973  0.86368873    -0.62900
N444        N  0.44155726  0.53084291  0.97151567    -0.05400
N445        N  0.41613970  0.53787645  0.50988692    -0.63600
N446        N  0.96688238  0.04963689  0.97222550    -0.06100
N447        N  0.96805996  0.07432681  0.50759257    -0.63200
N448        N  0.43253420  0.03160921  0.86086600    -0.05000
N449        N  0.40485723  0.03465842  0.86136540    -0.63900
Mn450      Mn  0.00791679  0.05291984  0.90107685     1.10700
C451        C  0.41173801  0.06567574  0.86349372     0.99100
C452        C  0.43438197  0.56315000  0.54589085     0.99200
N453        N  0.45327325  0.43056210  0.95535719    -0.06100
N454        N  0.44530750  0.40078710  0.96564613    -0.61500
N455        N  0.41799066  0.45985825  0.81021635    -0.05500
N456        N  0.38735041  0.44838674  0.80191672    -0.58200
N457        N  0.42984748  0.43760063  0.81307112    -0.06800
N458        N  0.40607948  0.41036785  0.81282307    -0.61100
N459        N  0.42856368  0.43914524  0.95730613    -0.05800
N460        N  0.40277216  0.41395863  0.96352732    -0.58300
Mn461      Mn  0.48263690  0.45206584  0.86459761     1.20200
Mn462      Mn  0.43701096  0.48857737  0.90270649     1.10100
Cl463      Cl  0.50143916  0.00785266  0.88159041    -0.86200
C464        C  0.41387282  0.39019294  0.96896873     0.96100
C465        C  0.37987440  0.41747789  0.80280329     0.95900
N466        N  0.08083307  0.04609760  0.69016690    -0.06400
N467        N  0.10481959  0.04676767  0.72768450    -0.58500
N468        N  0.05003845  0.08224582  0.58154502    -0.06100
N469        N  0.05502948  0.10798525  0.54814799    -0.60600
N470        N  0.04647285  0.08707605  0.64613768    -0.05700
N471        N  0.05098957  0.11660652  0.65835714    -0.58500
N472        N  0.08651984  0.04232642  0.62594168    -0.05300
N473        N  0.11510348  0.04164647  0.61777077    -0.61000
C474        C  0.12663307  0.04526996  0.68191004     0.95800
C475        C  0.05776774  0.12966050  0.59650145     0.95600
N476        N  0.46295161  0.51174213  0.58713877    -0.06600
N477        N  0.43714546  0.51769873  0.10562618    -0.59100
N478        N  0.04038789  0.45921265  0.51619587    -0.04700
N479        N  0.06130868  0.44522237  0.51832937    -0.60300
N480        N  0.01154344  0.43771379  0.51533863    -0.06600
N481        N  0.01306581  0.40955332  0.51507619    -0.59400
N482        N  0.99491646  0.03252017  0.59443703    -0.04300
N483        N  0.98629751  0.05581431  0.10232114    -0.60400
Mn484      Mn  0.04338510  0.03111077  0.55324865     1.18400
C485        C  0.45296375  0.05140147  0.09943293     0.97900
C486        C  0.04405093  0.41439735  0.51667502     0.98500
N487        N  0.47842745  0.05132305  0.73618962    -0.06600
N488        N  0.47256889  0.07751795  0.73216945    -0.62900
N489        N  0.49757032  0.47524233  0.67389407    -0.05400
N490        N  0.50483933  0.45028789  0.66001962    -0.63600
N491        N  0.02526874  0.99355427  0.67595294    -0.06100
N492        N  0.04929530  0.98525751  0.65800399    -0.63200
N493        N  0.45184777  0.02695538  0.73456717    -0.05000
N494        N  0.42774068  0.03691566  0.72846927    -0.63900
Mn495      Mn  0.02956875  0.04311885  0.71361339     1.10700
C496        C  0.44093911  0.06856402  0.72736456     0.99100
C497        C  0.53674380  0.46042873  0.65820496     0.99200
N498        N  0.44549635  0.41911157  0.61888848    -0.06100
N499        N  0.44149805  0.38959384  0.60733842    -0.61500
N500        N  0.40473717  0.46338595  0.64217366    -0.05500
N501        N  0.37680456  0.46517943  0.65268172    -0.58200
N502        N  0.40859124  0.45793158  0.57780425    -0.06800
N503        N  0.38366836  0.45649131  0.54255444    -0.61100
N504        N  0.44278033  0.42432130  0.68365057    -0.05800
N505        N  0.43893786  0.39883052  0.71757734    -0.58300
Mn506      Mn  0.45934967  0.46239534  0.54926455     1.20200
Mn507      Mn  0.44882844  0.47604487  0.71231394     1.10100
Cl508      Cl  0.49559809  0.00647009  0.62533183    -0.86200
C509        C  0.43622004  0.37682317  0.66972014     0.96100
C510        C  0.36356774  0.46017466  0.59021145     0.95900
C511        C  0.17357684  0.31694181  0.74179242     0.29700
C512        C  0.17391341  0.31875364  0.89779381     0.29700
C513        C  0.17051453  0.34551253  0.78257616    -0.06500
C514        C  0.14880594  0.29029399  0.78366143    -0.07300
C515        C  0.20283170  0.31535534  0.78136396    -0.07100
C516        C  0.17177179  0.34664002  0.85696585    -0.06500
C517        C  0.14665474  0.29310263  0.85822821    -0.07200
C518        C  0.20303403  0.31581818  0.85635129    -0.07100
C519        C  0.16295455  0.37078910  0.87734059    -0.32500
N520        N  0.15442935  0.38294593  0.82210170     0.14000
C521        C  0.15918355  0.36836255  0.76468933    -0.32500
H522        H  0.15193613  0.37211978  0.71445403     0.15900
C523        C  0.13067714  0.26382784  0.88122580    -0.31500
N524        N  0.13046640  0.24318883  0.83220974     0.12700
C525        C  0.14240728  0.25872012  0.77543589    -0.31500
C526        C  0.23445892  0.32584712  0.87319014    -0.31800
N527        N  0.25254561  0.33073551  0.81611374     0.13200
H528        H  0.24363922  0.33325936  0.92344906     0.15800
C529        C  0.23364899  0.32429877  0.76080044    -0.31800
H530        H  0.24197621  0.33011129  0.70939230     0.15800
H531        H  0.15322353  0.24853334  0.73888580     0.15800
H532        H  0.15926092  0.37679751  0.92927721     0.15900
H533        H  0.12318211  0.25769854  0.93238073     0.15800
C534        C  0.17259191  0.31885757  0.99129725     0.29700
C535        C  0.17263642  0.31698913  0.64787521     0.29700
C536        C  0.14203448  0.31976437  0.02923112    -0.06500
C537        C  0.17755938  0.29170648  0.03266093    -0.07300
C538        C  0.19600784  0.34578377  0.03398091    -0.07100
C539        C  0.14251220  0.31507795  0.60704348    -0.06500
C540        C  0.17897304  0.29044932  0.60583445    -0.07200
C541        C  0.19563676  0.34518522  0.60900522    -0.07100
C542        C  0.11629715  0.32126754  0.62584516    -0.32500
N543        N  0.10419361  0.33743248  0.06069001     0.14000
C544        C  0.11869065  0.32962566  0.00665573    -0.32500
H545        H  0.11480540  0.33431027  0.95445596     0.15900
C546        C  0.16068804  0.26009142  0.61595099    -0.31500
N547        N  0.15032698  0.24351004  0.06241746     0.12700
C548        C  0.16726217  0.26095576  0.01179646    -0.31500
C549        C  0.22030630  0.37029227  0.63068389    -0.31800
N550        N  0.23565464  0.38490191  0.07470304     0.13200
H551        H  0.22858547  0.37551373  0.68257332     0.15800
C552        C  0.22174584  0.37059038  0.01662513    -0.31800
H553        H  0.23141181  0.37636810  0.96598267     0.15800
H554        H  0.16808744  0.25246769  0.96061743     0.15800
H555        H  0.11089301  0.32645528  0.67690737     0.15900
H556        H  0.14006006  0.25475966  0.64727625     0.15800
C557        C  0.07718897  0.18367830  0.56501115    -0.20600
C558        C  0.08382395  0.15850219  0.58853331    -0.07100
C559        C  0.11526222  0.15995304  0.59588231     0.13700
C560        C  0.13965304  0.18738505  0.57914658    -0.20600
C561        C  0.13335153  0.21313548  0.55588536    -0.07200
C562        C  0.10142457  0.21143812  0.55141166     0.13700
C563        C  0.09151901  0.23874681  0.53966659    -0.24000
H564        H  0.05285094  0.18203089  0.55980248     0.15000
H565        H  0.15777529  0.19163779  0.08827251     0.15000
C566        C  0.12321314  0.13286165  0.62170716    -0.23900
H567        H  0.07649304  0.23470109  0.49365808     0.05200
H568        H  0.11182467  0.25986739  0.53320188     0.08500
H569        H  0.07801622  0.24247232  0.58434682     0.08500
H570        H  0.10793077  0.12561857  0.16712848     0.08400
H571        H  0.14903443  0.13859353  0.62633194     0.08400
H572        H  0.11116259  0.11404652  0.08120034     0.05200
C573        C  0.32240132  0.41066653  0.56864130    -0.20600
C574        C  0.33041568  0.44230410  0.58395268    -0.07100
C575        C  0.30703444  0.45498911  0.59870424     0.13700
C576        C  0.27554575  0.43584822  0.59355000    -0.20600
C577        C  0.26776790  0.40438531  0.57761046    -0.07200
C578        C  0.29118605  0.39119061  0.56829882     0.13700
C579        C  0.28335639  0.35657412  0.56182599    -0.24000
H580        H  0.34070314  0.40100102  0.55980758     0.15000
H581        H  0.25694197  0.44503114  0.60338755     0.15000
C582        C  0.31524967  0.48824753  0.62056046    -0.23900
H583        H  0.30481735  0.35044070  0.55775130     0.05200
H584        H  0.27011306  0.34709366  0.01587891     0.08500
H585        H  0.27006232  0.34490186  0.60726551     0.08500
H586        H  0.33000998  0.50357563  0.58072720     0.08400
H587        H  0.32823360  0.49187484  0.66936177     0.08400
H588        H  0.29397075  0.49450755  0.62887373     0.05200
C589        C  0.08889376  0.40104795  0.55367946    -0.20600
C590        C  0.05716267  0.39050589  0.53458623    -0.07100
C591        C  0.03950512  0.35808230  0.53328937     0.13700
C592        C  0.05458744  0.33728448  0.54957648    -0.20600
C593        C  0.08643584  0.34810371  0.56672778    -0.07200
C594        C  0.10390262  0.38040957  0.56883648     0.13700
C595        C  0.13877770  0.39427273  0.58308783    -0.24000
H596        H  0.10266965  0.42574113  0.55506579     0.15000
H597        H  0.04399335  0.32188979  0.03154013     0.15000
C598        C  0.00529831  0.34492917  0.51315934    -0.23900
H599        H  0.15098216  0.40875073  0.53946710     0.05200
H600        H  0.15001414  0.37691293  0.59069823     0.08500
H601        H  0.14281986  0.40935218  0.62944527     0.08500
H602        H  0.00379670  0.36208001  0.95062030     0.08400
H603        H  0.99091651  0.35256745  0.55041952     0.08400
H604        H  0.99751794  0.32722450  0.99728053     0.05200
C605        C  0.09065864  0.19538303  0.86720804    -0.20600
C606        C  0.12036937  0.21019467  0.83920108    -0.07100
C607        C  0.13696190  0.19221327  0.80926889     0.13700
C608        C  0.12140084  0.16033186  0.79982839    -0.20600
C609        C  0.09017025  0.14603518  0.82050560    -0.07200
C610        C  0.07517284  0.16350203  0.85888492     0.13700
C611        C  0.04271534  0.14962743  0.89032261    -0.24000
H612        H  0.07841753  0.20935527  0.89069442     0.15000
H613        H  0.13360382  0.14703604  0.77411963     0.15000
C614        C  0.17078026  0.20562977  0.78625735    -0.23900
H615        H  0.03721875  0.16647360  0.92474975     0.05200
H616        H  0.04123157  0.12915370  0.92119536     0.08500
H617        H  0.02433151  0.14299707  0.85026205     0.08500
H618        H  0.18293911  0.22939537  0.80742294     0.08400
H619        H  0.17185220  0.20592180  0.72973705     0.08400
H620        H  0.18381661  0.19076305  0.80370189     0.05200
C621        C  0.34096098  0.36326523  0.81456160    -0.20600
C622        C  0.34671924  0.39528451  0.80724464    -0.07100
C623        C  0.32043669  0.40541897  0.80423978     0.13700
C624        C  0.28990254  0.38345112  0.80735180    -0.20600
C625        C  0.28449280  0.35183502  0.81377357    -0.07200
C626        C  0.31001021  0.34145696  0.81714261     0.13700
C627        C  0.30417411  0.30731047  0.82167934    -0.24000
H628        H  0.36062822  0.35517580  0.81705506     0.15000
H629        H  0.26973195  0.39081777  0.80486977     0.15000
C630        C  0.32349900  0.43911429  0.79860415    -0.23900
H631        H  0.32657985  0.30313683  0.82794589     0.05200
H632        H  0.29228247  0.29518293  0.77468187     0.08500
H633        H  0.28861733  0.29724491  0.86554048     0.08500
H634        H  0.33590775  0.44894151  0.75089718     0.08400
H635        H  0.33618369  0.45264237  0.84351669     0.08400
H636        H  0.30022153  0.44198446  0.79704560     0.05200
C637        C  0.08186084  0.40136482  0.84700255    -0.20600
C638        C  0.09458566  0.43239982  0.86969564    -0.07100
C639        C  0.12775736  0.44763277  0.87196588     0.13700
C640        C  0.14707830  0.43119574  0.85142053    -0.20600
C641        C  0.13419488  0.40042957  0.82831990    -0.07200
C642        C  0.10125755  0.38521858  0.82635141     0.13700
C643        C  0.08645050  0.35175901  0.80393613    -0.24000
H644        H  0.05655341  0.38951861  0.84525095     0.15000
H645        H  0.17246044  0.44193601  0.85522622     0.15000
C646        C  0.14326879  0.48068197  0.89747286    -0.23900
H647        H  0.06049722  0.34281224  0.81130470     0.05200
H648        H  0.09624080  0.33679007  0.83306251     0.08500
H649        H  0.09097543  0.35012268  0.74902025     0.08500
H650        H  0.13490323  0.48313463  0.94984564     0.08400
H651        H  0.13798236  0.49698576  0.86271769     0.08400
H652        H  0.16930554  0.48764333  0.89945071     0.05200
C653        C  0.37816427  0.10501895  0.69347662    -0.20600
C654        C  0.39519808  0.13650505  0.70733126    -0.07100
C655        C  0.42705495  0.14558829  0.72597256     0.13700
C656        C  0.44134550  0.12303649  0.72973696    -0.20600
C657        C  0.42423788  0.09115688  0.71767157    -0.07200
C658        C  0.39207337  0.08217717  0.69920619     0.13700
C659        C  0.37200694  0.04878016  0.68584930    -0.24000
H660        H  0.35354465  0.09830924  0.67981554     0.15000
H661        H  0.46588529  0.13038653  0.74440376     0.15000
C662        C  0.44579127  0.17913594  0.74228889    -0.23900
H663        H  0.34772109  0.04650694  0.67121418     0.05200
H664        H  0.37021919  0.03498949  0.73253370     0.08500
H665        H  0.38225838  0.03905843  0.64358674     0.08500
H666        H  0.43501955  0.18712784  0.78640674     0.08400
H667        H  0.44597475  0.19366991  0.69758381     0.08400
H668        H  0.47055605  0.18255222  0.75547011     0.05200
C669        C  0.41960248  0.32208583  0.70200576    -0.20600
C670        C  0.41142566  0.34681376  0.67969552    -0.07100
C671        C  0.37942905  0.34367372  0.67410716     0.13700
C672        C  0.35621795  0.31555113  0.69151800    -0.20600
C673        C  0.36413992  0.29061879  0.71388281    -0.07200
C674        C  0.39630344  0.29358543  0.71726517     0.13700
C675        C  0.40686685  0.26670081  0.73160095    -0.24000
H676        H  0.44425915  0.32478127  0.70585356     0.15000
H677        H  0.33162997  0.31224874  0.68392421     0.15000
C678        C  0.36957768  0.36963271  0.64877016    -0.23900
H679        H  0.42080946  0.26300663  0.68770946     0.05200
H680        H  0.38703768  0.24463373  0.73937734     0.08500
H681        H  0.42195491  0.27193484  0.77763193     0.08500
H682        H  0.37875680  0.37598791  0.59671352     0.08400
H683        H  0.37907189  0.39049059  0.68182381     0.08400
H684        H  0.34357618  0.36293399  0.64802209     0.05200
C685        C  0.18155683  0.05126103  0.65123421    -0.20600
C686        C  0.16059018  0.05826623  0.69607667    -0.07100
C687        C  0.17269794  0.08040187  0.74916467     0.13700
C688        C  0.20481662  0.09526422  0.75495543    -0.20600
C689        C  0.22555403  0.09077246  0.70658057    -0.07200
C690        C  0.21412411  0.06741527  0.65575772     0.13700
C691        C  0.23554473  0.05913915  0.60625445    -0.24000
H692        H  0.17247871  0.03386308  0.61128737     0.15000
H693        H  0.21343823  0.11346089  0.79330611     0.15000
C694        C  0.15253618  0.09237611  0.79415943    -0.23900
H695        H  0.23102420  0.03378592  0.60844975     0.05200
H696        H  0.26080038  0.07139328  0.61819156     0.08500
H697        H  0.23089533  0.06497650  0.55375922     0.08500
H698        H  0.13711940  0.07358591  0.82670227     0.08400
H699        H  0.13874645  0.10166785  0.76061785     0.08400
H700        H  0.16644623  0.11195342  0.82779361     0.05200
C701        C  0.37374114  0.11580091  0.95433644    -0.20600
C702        C  0.34202551  0.09701893  0.94689403    -0.07100
C703        C  0.33339505  0.06819310  0.91339742     0.13700
C704        C  0.35695273  0.05885519  0.88595721    -0.20600
C705        C  0.38878685  0.07837576  0.88998937    -0.07200
C706        C  0.39737523  0.10763526  0.92377278     0.13700
C707        C  0.43047426  0.13131648  0.92561290    -0.24000
H708        H  0.37953998  0.13868934  0.97772964     0.15000
H709        H  0.35031381  0.03651934  0.85968881     0.15000
C710        C  0.29927371  0.04824690  0.90450691    -0.23900
H711        H  0.43146663  0.15345944  0.95092353     0.05200
H712        H  0.43955623  0.13703465  0.87307128     0.08500
H713        H  0.44626090  0.12258947  0.95456057     0.08500
H714        H  0.28700017  0.06082964  0.87469570     0.08400
H715        H  0.29161674  0.04395652  0.47113478     0.08400
H716        H  0.29652826  0.02606304  0.87719757     0.05200
C717        C  0.36576636  0.34275014  0.97412397    -0.20600
C718        C  0.39628598  0.35753447  0.94913115    -0.07100
C719        C  0.41065921  0.33998384  0.90913297     0.13700
C720        C  0.39562519  0.30761547  0.40383460    -0.20600
C721        C  0.36770099  0.29254774  0.93727664    -0.07200
C722        C  0.35104081  0.31033766  0.96832721     0.13700
C723        C  0.31777859  0.29623295  0.99440575    -0.24000
H724        H  0.35364824  0.35636566  0.99959325     0.15000
H725        H  0.40794776  0.29389023  0.37962008     0.15000
C726        C  0.44162100  0.35380678  0.37283008    -0.23900
H727        H  0.30357089  0.30983693  0.97630375     0.05200
H728        H  0.31772299  0.29697427  0.05095996     0.08500
H729        H  0.30598775  0.27200626  0.97554546     0.08500
H730        H  0.46116340  0.36093834  0.41002694     0.08400
H731        H  0.44183146  0.37394591  0.34235927     0.08400
H732        H  0.44643723  0.33688995  0.33751597     0.05200
C733        C  0.14937320  0.13827391  0.95723127    -0.20600
C734        C  0.14357018  0.10612550  0.96188350    -0.07100
C735        C  0.16971992  0.09575699  0.96370905     0.13700
C736        C  0.19774985  0.11604366  0.46339776    -0.20600
C737        C  0.20564693  0.14942674  0.95859158    -0.07200
C738        C  0.18028326  0.16000252  0.95623023     0.13700
C739        C  0.18636775  0.19431110  0.95419400    -0.24000
H740        H  0.12978303  0.14648900  0.95495177     0.15000
H741        H  0.21741993  0.10796690  0.46685622     0.15000
C742        C  0.16251661  0.06064103  0.46755447    -0.23900
H743        H  0.16416887  0.19892707  0.94808468     0.05200
H744        H  0.20232300  0.20499788  0.91130445     0.08500
H745        H  0.19806558  0.20564767  0.00201889     0.08500
H746        H  0.15036135  0.04812972  0.42126538     0.08400
H747        H  0.14890085  0.05005615  0.51322340     0.08400
H748        H  0.18537763  0.05695974  0.47021543     0.05200
C749        C  0.31191076  0.68611930  0.01748341     0.29700
C750        C  0.31113182  0.68510176  0.36137899     0.29700
C751        C  0.31213090  0.65709852  0.97584031    -0.06500
C752        C  0.28330541  0.68983307  0.97702103    -0.07300
C753        C  0.33816255  0.71216393  0.97688051    -0.07100
C754        C  0.31097388  0.65636133  0.40207005    -0.06500
C755        C  0.28177783  0.68874415  0.40123497    -0.07200
C756        C  0.33878095  0.70938253  0.40262636    -0.07100
C757        C  0.31407036  0.62918147  0.38271466    -0.32500
N758        N  0.31812474  0.61453814  0.43916619     0.14000
C759        C  0.31411411  0.62949408  0.99474657    -0.32500
H760        H  0.31787473  0.62326371  0.04594811     0.15900
C761        C  0.25063218  0.67875926  0.38037613    -0.31500
N762        N  0.23392854  0.67416979  0.93637857     0.12700
C763        C  0.25163838  0.67920819  0.99375610    -0.31500
C764        C  0.35688712  0.73846980  0.38140567    -0.31800
N765        N  0.35886064  0.75975760  0.93000250     0.15200
H766        H  0.36607297  0.74453617  0.33109624     0.15800
C767        C  0.34560181  0.74395951  0.98583221    -0.31800
H768        H  0.33564519  0.75448938  0.02399431     0.15800
H769        H  0.24202530  0.67210856  0.04392329     0.15800
H770        H  0.31829355  0.62284065  0.33116644     0.15900
H771        H  0.24274536  0.67339222  0.32831276     0.15800
C772        C  0.31304732  0.68543428  0.26793084     0.29700
C773        C  0.31423643  0.68494681  0.11161299     0.29700
C774        C  0.34177510  0.68074654  0.22801971    -0.06500
C775        C  0.28726386  0.66034923  0.22615880    -0.07300
C776        C  0.31136294  0.71437095  0.22756902    -0.07100
C777        C  0.34212891  0.67971941  0.15284456    -0.06500
C778        C  0.28715372  0.66048567  0.15193618    -0.07200
C779        C  0.31530658  0.71460009  0.15289674    -0.07100
C780        C  0.36321403  0.66501893  0.13577688    -0.32500
N781        N  0.37576136  0.65797822  0.19327710     0.14000
C782        C  0.36308462  0.66740980  0.24852307    -0.32500
H783        H  0.36677144  0.66199868  0.30042525     0.15900
C784        C  0.26330507  0.63392278  0.13220245    -0.31500
N785        N  0.24975794  0.61802630  0.18867512     0.12700
C786        C  0.26445668  0.63349648  0.24517633    -0.31500
C787        C  0.33811840  0.74301284  0.14247889    -0.31800
N788        N  0.34160480  0.76176907  0.19645840     0.13200
H789        H  0.35764201  0.74642024  0.10815768     0.15800
C790        C  0.32452154  0.74511496  0.24807371    -0.31800
H791        H  0.32433188  0.75393312  0.29898040     0.15800
H792        H  0.25772747  0.62625606  0.29696411     0.15800
H793        H  0.36718680  0.65756041  0.08515155     0.15900
H794        H  0.25543450  0.62732069  0.08050908     0.15800
N795        N  0.04376466  0.58151467  0.41396778    -0.06400
N796        N  0.06867477  0.60858311  0.41665834    -0.58500
N797        N  0.04492955  0.56785208  0.27531710    -0.06100
N798        N  0.07147419  0.59216041  0.26746829    -0.60600
N799        N  0.02153573  0.57855991  0.27622887    -0.05700
N800        N  0.03110535  0.60804536  0.26103506    -0.58500
N801        N  0.05532545  0.55895053  0.41139304    -0.05300
N802        N  0.08612201  0.56960558  0.41334572    -0.61000
C803        C  0.09523442  0.60039728  0.41606950     0.95800
C804        C  0.06228762  0.61712303  0.26036783     0.95600
N805        N  0.52663390  0.95863488  0.28492057    -0.06600
N806        N  0.53270967  0.93629256  0.25108381    -0.59100
N807        N  0.05935863  0.97311442  0.40002052    -0.04700
N808        N  0.08699993  0.97030631  0.39992655    -0.60300
N809        N  0.03642277  0.94552891  0.39869156    -0.06600
N810        N  0.04909464  0.92359249  0.39428205    -0.59400
N811        N  0.03298583  0.48477932  0.26992314    -0.04300
N812        N  0.05673488  0.47558869  0.25321164    -0.60400
Mn813      Mn  0.04172374  0.52474988  0.33636627     1.18400
C814        C  0.55224520  0.44914364  0.21381981     0.97900
C815        C  0.08072393  0.93966237  0.39521924     0.98500
N816        N  0.45391277  0.55962471  0.36277402    -0.06600
N817        N  0.44241513  0.58233093  0.36449828    -0.62900
N818        N  0.44170385  0.03114554  0.47028202    -0.05400
N819        N  0.41915912  0.03627614  0.00916735    -0.63600
N820        N  0.95976126  0.55982917  0.44518722    -0.06100
N821        N  0.96863372  0.57857275  0.98860317    -0.63200
N822        N  0.43035993  0.53232009  0.36294283    -0.05000
N823        N  0.40318526  0.53623387  0.36200063    -0.63900
Mn824      Mn  0.99335824  0.57012599  0.36442379     1.10700
C825        C  0.41087332  0.56729509  0.36364619     0.99100
C826        C  0.43697245  0.06202669  0.04479483     0.99200
N827        N  0.45768609  0.92951276  0.45145321    -0.06100
N828        N  0.44916956  0.89947884  0.45822504    -0.61500
N829        N  0.42245590  0.96090584  0.30981966    -0.05500
N830        N  0.39179013  0.94996689  0.30136058    -0.58200
N831        N  0.43402072  0.93840259  0.30837281    -0.06800
N832        N  0.41007021  0.91136486  0.30469903    -0.61100
N833        N  0.43316280  0.93844025  0.45353304    -0.05800
N834        N  0.40707618  0.91341075  0.45660347    -0.58300
Mn835      Mn  0.48637276  0.95054348  0.35996709     1.20200
Mn836      Mn  0.44268049  0.98897544  0.40302628     1.10100
Cl837      Cl  0.49288415  0.50554082  0.38143286    -0.86200
C838        C  0.41774885  0.88927884  0.45963983     0.96100
C839        C  0.38404177  0.91901746  0.29717062     0.95900
N840        N  0.07465573  0.53827748  0.17353235    -0.06400
N841        N  0.09853357  0.54353485  0.21503448    -0.58500
N842        N  0.05827277  0.56937471  0.05802277    -0.06100
N843        N  0.08004943  0.59459060  0.03588549    -0.60600
N844        N  0.04633900  0.57657825  0.11397075    -0.05700
N845        N  0.05707707  0.60683634  0.12574517    -0.58500
N846        N  0.08168259  0.53113577  0.11194979    -0.05300
N847        N  0.11113581  0.53244364  0.11002573    -0.61000
C848        C  0.12161810  0.54078599  0.17434561     0.95800
C849        C  0.07806330  0.61763603  0.07578177     0.95600
N850        N  0.46773268  0.01262167  0.08544428    -0.06600
N851        N  0.44172324  0.01990386  0.60320612    -0.59100
N852        N  0.04096368  0.97796972  0.02420921    -0.04700
N853        N  0.06452119  0.96730443  0.03152763    -0.60300
N854        N  0.01400306  0.95413314  0.02169753    -0.06600
N855        N  0.01901408  0.92758600  0.02674034    -0.59400
N856        N  0.99897562  0.52083885  0.05888496    -0.04300
N857        N  0.00363218  0.53664829  0.51532143    -0.60400
Mn858      Mn  0.04602737  0.51935742  0.02553571     1.18400
C859        C  0.44923811  0.55127897  0.60064178     0.97900
C860        C  0.05049311  0.93570997  0.03274603     0.98500
N861        N  0.47583874  0.55139486  0.23895505    -0.06600
N862        N  0.47006722  0.57764156  0.23341400    -0.62900
N863        N  0.50122375  0.97573485  0.16601485    -0.05400
N864        N  0.50933881  0.95118724  0.15281893    -0.63600
N865        N  0.02325031  0.48725767  0.13948535    -0.06100
N866        N  0.04756939  0.47764752  0.13589118    -0.63200
N867        N  0.44927021  0.52704801  0.23775208    -0.05000
N868        N  0.42521947  0.53706968  0.23072175    -0.63900
Mn869      Mn  0.02412052  0.53585279  0.18510206     1.10700
C870        C  0.43841229  0.56877124  0.22837975     0.99100
C871        C  0.54135351  0.96225426  0.15197969     0.99200
N872        N  0.45009588  0.91989428  0.11276172    -0.06100
N873        N  0.44609236  0.89049785  0.09994728    -0.61500
N874        N  0.40836356  0.96331739  0.13525212    -0.05500
N875        N  0.38030960  0.96524254  0.14375148    -0.58200
N876        N  0.41365164  0.95957563  0.07073623    -0.06800
N877        N  0.39009968  0.96015679  0.03343571    -0.61100
N878        N  0.44685141  0.92442301  0.17764773    -0.05800
N879        N  0.44248358  0.89858196  0.21053708    -0.58300
Mn880      Mn  0.46429326  0.96377698  0.04473127     1.20200
Mn881      Mn  0.45213866  0.97546205  0.20735575     1.10100
Cl882      Cl  0.49182935  0.50412860  0.13044253    -0.86200
C883        C  0.44007292  0.87708585  0.16164509     0.96100
C884        C  0.36879904  0.96242410  0.07961677     0.95900
C885        C  0.17907102  0.82006476  0.21417875     0.29700
C886        C  0.17835318  0.81949577  0.36987557     0.29700
C887        C  0.17982653  0.84940922  0.25649859    -0.06500
C888        C  0.15250823  0.79468474  0.25434851    -0.07300
C889        C  0.20720223  0.81506414  0.25358404    -0.07100
C890        C  0.18037837  0.84924547  0.33077261    -0.06500
C891        C  0.14983209  0.79643434  0.32874609    -0.07200
C892        C  0.20649869  0.81412391  0.32920730    -0.07100
C893        C  0.17569324  0.87536121  0.35234771    -0.32500
N894        N  0.16910280  0.88937294  0.29778053     0.14000
C895        C  0.17363610  0.87540984  0.23952762    -0.32500
H896        H  0.16832178  0.88135690  0.18937551     0.15900
C897        C  0.13212108  0.76692020  0.34885257    -0.31500
N898        N  0.13115614  0.74671683  0.29787247     0.12700
C899        C  0.14473470  0.76321750  0.24339966    -0.31500
C900        C  0.23767083  0.82447887  0.34853416    -0.31800
N901        N  0.25662585  0.83174775  0.29306407     0.13200
H902        H  0.24599940  0.83084817  0.39987873     0.15800
C903        C  0.23870605  0.82619932  0.23621937    -0.31800
H904        H  0.24798656  0.83401736  0.18620731     0.15800
H905        H  0.15602189  0.75370541  0.20630263     0.15800
H906        H  0.17214177  0.88113117  0.40451524     0.15900
H907        H  0.12314186  0.76041400  0.39932821     0.15800
C908        C  0.17647443  0.81870154  0.46313325     0.29700
C909        C  0.17634405  0.82040637  0.12021038     0.29700
C910        C  0.14849495  0.82484262  0.50296768    -0.06500
C911        C  0.17605462  0.78883720  0.50305063    -0.07300
C912        C  0.20304071  0.84262778  0.50577770    -0.07100
C913        C  0.14839957  0.82521566  0.08002177    -0.06500
C914        C  0.17539553  0.79087711  0.07833116    -0.07200
C915        C  0.20301024  0.84517198  0.07987252    -0.07100
C916        C  0.12814370  0.84021000  0.09958581    -0.32500
N917        N  0.11720783  0.85033480  0.53908140     0.14000
C918        C  0.12870994  0.84018841  0.48327626    -0.32500
H919        H  0.12474065  0.84569861  0.43178005     0.15900
C920        C  0.15298443  0.76187889  0.08669079    -0.31500
N921        N  0.14904930  0.73996186  0.53298540     0.12700
C922        C  0.16476020  0.75807780  0.48147418    -0.31500
C923        C  0.22740539  0.87078974  0.10055804    -0.31800
N924        N  0.24160421  0.88318522  0.54619883     0.13200
H925        H  0.23481634  0.87750614  0.15252813     0.15800
C926        C  0.22731262  0.86894338  0.48831427    -0.31800
H927        H  0.23525533  0.87649880  0.43728707     0.15800
H928        H  0.16549123  0.75021348  0.43027823     0.15800
H929        H  0.12365746  0.84612679  0.15100396     0.15900
H930        H  0.13325990  0.75683403  0.12081275     0.15800
C931        C  0.08180777  0.67036421  0.04765245    -0.20600
C932        C  0.09709205  0.65008696  0.06592959    -0.07100
C933        C  0.13018920  0.66065028  0.07006426     0.13700
C934        C  0.14740097  0.69116771  0.05186251    -0.20600
C935        C  0.13240363  0.71147539  0.03201800    -0.07200
C936        C  0.09910384  0.70133898  0.03214018     0.13700
C937        C  0.08165099  0.72309540  0.01837367    -0.24000
H938        H  0.05628221  0.66190512  0.04571711     0.15000
H939        H  0.17437076  0.69832634  0.56179936     0.15000
C940        C  0.14798790  0.64099397  0.09655302    -0.23900
H941        H  0.05575279  0.71108660  0.02258395     0.05200
H942        H  0.08660267  0.73211431  0.96628206     0.08500
H943        H  0.08844145  0.74283388  0.05531810     0.08500
H944        H  0.13916400  0.61466809  0.61299102     0.08400
H945        H  0.16107116  0.65193824  0.14324127     0.08400
H946        H  0.17118320  0.63865912  0.56196916     0.05200
C947        C  0.32917389  0.91521440  0.03798399    -0.20600
C948        C  0.33594561  0.94483000  0.06707814    -0.07100
C949        C  0.31163589  0.95547106  0.08682956     0.13700
C950        C  0.28052786  0.93602166  0.07554328    -0.20600
C951        C  0.27399465  0.90628142  0.04716960    -0.07200
C952        C  0.29845424  0.89536874  0.02986674     0.13700
C953        C  0.29329349  0.86242420  0.00740812    -0.24000
H954        H  0.34800786  0.90669028  0.02522274     0.15000
H955        H  0.26121156  0.94340486  0.09069673     0.15000
C956        C  0.31847230  0.98684860  0.11993333    -0.23900
H957        H  0.30646903  0.85245965  0.04166407     0.05200
H958        H  0.30102953  0.86069044  0.45585944     0.08500
H959        H  0.26851629  0.84661204  0.00987419     0.08500
H960        H  0.33346501  0.00520144  0.08564512     0.08400
H961        H  0.33082746  0.98772444  0.16879972     0.08400
H962        H  0.29656498  0.99164071  0.13100116     0.05200
C963        C  0.10018246  0.92428832  0.04228375    -0.20600
C964        C  0.06705687  0.91308021  0.04300978    -0.07100
C965        C  0.05074838  0.88044640  0.04966980     0.13700
C966        C  0.06790156  0.86024102  0.05067210    -0.20600
C967        C  0.10068800  0.87147644  0.04514202    -0.07200
C968        C  0.11710322  0.90388632  0.04233166     0.13700
C969        C  0.15248454  0.91688376  0.03864503    -0.24000
H970        H  0.11294566  0.94909129  0.03876298     0.15000
H971        H  0.05559157  0.83551693  0.53534694     0.15000
C972        C  0.01539480  0.86631635  0.05614899    -0.23900
H973        H  0.16168697  0.94272560  0.03747041     0.05200
H974        H  0.16055835  0.90823835  0.99172960     0.08500
H975        H  0.16257225  0.90956747  0.08367603     0.08500
H976        H  0.00624055  0.87290063  0.48693650     0.08400
H977        H  0.00737561  0.87695637  0.10044386     0.08400
H978        H  0.00677416  0.84033629  0.53463249     0.05200
C979        C  0.08687093  0.70077542  0.32553748    -0.20600
C980        C  0.11717939  0.71340590  0.29895832    -0.07100
C981        C  0.13061118  0.69357166  0.26460072     0.13700
C982        C  0.11214352  0.66227234  0.25339534    -0.20600
C983        C  0.08134461  0.64981786  0.27789899    -0.07200
C984        C  0.06867778  0.66941881  0.31615949     0.13700
C985        C  0.03581399  0.65854965  0.34621926    -0.24000
H986        H  0.07650350  0.71624775  0.34967211     0.15000
H987        H  0.12174721  0.64764867  0.22439015     0.15000
C988        C  0.16440052  0.70404288  0.24096448    -0.23900
H989        H  0.03172965  0.67682849  0.37867569     0.05200
H990        H  0.03191326  0.63811793  0.37894396     0.08500
H991        H  0.01797632  0.65279979  0.30507963     0.08500
H992        H  0.17902763  0.72664509  0.26422804     0.08400
H993        H  0.16548589  0.70587182  0.18482116     0.08400
H994        H  0.17505239  0.68672040  0.25571443     0.05200
C995        C  0.34490987  0.86458355  0.30053002    -0.20600
C996        C  0.35078578  0.89680105  0.29900310    -0.07100
C997        C  0.32454348  0.90705542  0.29901294     0.13700
C998        C  0.29391944  0.88501053  0.29671355    -0.20600
C999        C  0.28848406  0.85317595  0.29552926    -0.07200
C1000       C  0.31394584  0.84277664  0.29874732     0.13700
C1001       C  0.30800281  0.80857562  0.29933942    -0.24000
H1002       H  0.36452091  0.85637030  0.30200193     0.15000
H1003       H  0.27378815  0.89248384  0.29596628     0.15000
C1004       C  0.32786249  0.94093432  0.30224148    -0.23900
H1005       H  0.33029353  0.80444131  0.30741368     0.05200
H1006       H  0.29721890  0.79768480  0.25043327     0.08500
H1007       H  0.29136860  0.79725404  0.34069214     0.08500
H1008       H  0.34084795  0.95317714  0.25693447     0.08400
H1009       H  0.34020374  0.95196286  0.34976681     0.08400
H1010       H  0.30465644  0.94399097  0.30272325     0.05200
C1011       C  0.09313041  0.89736850  0.33987022    -0.20600
C1012       C  0.10389939  0.92795466  0.36482483    -0.07100
C1013       C  0.13619273  0.94704237  0.35713890     0.13700
C1014       C  0.15668934  0.93429067  0.32663799    -0.20600
C1015       C  0.14613110  0.90340458  0.30517006    -0.07200
C1016       C  0.11382911  0.88461881  0.31071867     0.13700
C1017       C  0.10036593  0.85054872  0.29101716    -0.24000
H1018       H  0.06851689  0.88282587  0.34492295     0.15000
H1019       H  0.18167559  0.94771564  0.32361845     0.15000
C1020       C  0.15008197  0.98040370  0.38233391    -0.23900
H1021       H  0.08873806  0.83669373  0.33587905     0.05200
H1022       H  0.11794802  0.84092320  0.27208857     0.08500
H1023       H  0.08245594  0.84705732  0.25054606     0.08500
H1024       H  0.14506530  0.98183402  0.43749747     0.08400
H1025       H  0.14049184  0.99538498  0.35268892     0.08400
H1026       H  0.17607239  0.99016772  0.37590452     0.05200
C1027       C  0.37513402  0.60433444  0.18891460    -0.20600
C1028       C  0.39217350  0.63618782  0.19682961    -0.07100
C1029       C  0.42436359  0.64588426  0.21356370     0.13700
C1030       C  0.43882345  0.62352056  0.22152636    -0.20600
C1031       C  0.42165629  0.59128139  0.21526698    -0.07200
C1032       C  0.38924156  0.58184327  0.19857611     0.13700
C1033       C  0.36899513  0.54823850  0.19126040    -0.24000
H1034       H  0.35028578  0.59709613  0.17694464     0.15000
H1035       H  0.46357561  0.63137782  0.23462920     0.15000
C1036       C  0.44325999  0.67989688  0.22349478    -0.23900
H1037       H  0.34447306  0.54566455  0.17809413     0.05200
H1038       H  0.36810117  0.53610370  0.23998102     0.08500
H1039       H  0.37845203  0.53712828  0.15010132     0.08500
H1040       H  0.43307152  0.68958117  0.26595852     0.08400
H1041       H  0.44277439  0.69257538  0.17613244     0.08400
H1042       H  0.46821071  0.68382626  0.23596775     0.05200
C1043       C  0.42200773  0.82230337  0.19323671    -0.20600
C1044       C  0.41475992  0.84733741  0.16934573    -0.07100
C1045       C  0.38307167  0.84468688  0.15984060     0.13700
C1046       C  0.35927686  0.81650201  0.17402975    -0.20600
C1047       C  0.36625245  0.79136998  0.19873629    -0.07200
C1048       C  0.39810452  0.79388558  0.20609489     0.13700
C1049       C  0.40779701  0.76661459  0.22204724    -0.24000
H1050       H  0.44644555  0.82469778  0.20015125     0.15000
H1051       H  0.33503110  0.81349884  0.16311348     0.15000
C1052       C  0.37410546  0.87137948  0.13514802    -0.23900
H1053       H  0.42278468  0.76306162  0.18005531     0.05200
H1054       H  0.38755266  0.74461868  0.22734364     0.08500
H1055       H  0.42164767  0.77131904  0.26983219     0.08500
H1056       H  0.38473474  0.87895841  0.08469558     0.08400
H1057       H  0.38258093  0.89137490  0.17106594     0.08400
H1058       H  0.34819441  0.86486866  0.13061282     0.05200
C1059       C  0.17754285  0.54905532  0.15179584    -0.20600
C1060       C  0.15510552  0.55806828  0.18754744    -0.07100
C1061       C  0.16506858  0.58579812  0.22744643     0.13700
C1062       C  0.19665738  0.60403586  0.22876180    -0.20600
C1063       C  0.21866432  0.59589345  0.19073124    -0.07200
C1064       C  0.20949558  0.56785550  0.15290573     0.13700
C1065       C  0.23327070  0.55776931  0.11478439    -0.24000
H1066       H  0.16990086  0.52783207  0.12122260     0.15000
H1067       H  0.20421120  0.62598882  0.25674559     0.15000
C1068       C  0.14282888  0.59828728  0.26393628    -0.23900
H1069       H  0.22216409  0.53431125  0.09113832     0.05200
H1070       H  0.25178416  0.55686457  0.15039559     0.08500
H1071       H  0.24433994  0.57421297  0.07343743     0.08500
H1072       H  0.12978908  0.58185379  0.30364079     0.08400
H1073       H  0.12647870  0.60151804  0.22613487     0.08400
H1074       H  0.15508105  0.62124559  0.28877688     0.05200
C1075       C  0.37242175  0.62003655  0.44131561    -0.20600
C1076       C  0.34086231  0.60032594  0.43617401    -0.07100
C1077       C  0.33261944  0.57025100  0.40978256     0.13700
C1078       C  0.35631794  0.56049831  0.38569486    -0.20600
C1079       C  0.38803381  0.58053488  0.38749340    -0.07200
C1080       C  0.39641811  0.61082580  0.41602863     0.13700
C1081       C  0.42972582  0.63402723  0.41844546    -0.24000
H1082       H  0.37779825  0.64370903  0.45992718     0.15000
H1083       H  0.34974908  0.53722049  0.36401906     0.15000
C1084       C  0.29867008  0.54925745  0.40480077    -0.23900
H1085       H  0.43076419  0.65682890  0.44034836     0.05200
H1086       H  0.43972382  0.63832195  0.36625672     0.08500
H1087       H  0.44459544  0.62543049  0.45096913     0.08500
H1088       H  0.28564185  0.55982205  0.37155090     0.08400
H1089       H  0.28374851  0.54433997  0.93494917     0.08400
H1090       H  0.29622966  0.52602499  0.38312569     0.05200
C1091       C  0.36843260  0.84322651  0.45960437    -0.20600
C1092       C  0.39976947  0.85691349  0.43868679    -0.07100
C1093       C  0.41423388  0.83859247  0.40144630     0.13700
C1094       C  0.39844423  0.80771813  0.89266375    -0.20600
C1095       C  0.36884374  0.79239530  0.42426000    -0.07200
C1096       C  0.35250444  0.81111210  0.45184621     0.13700
C1097       C  0.31836528  0.79807472  0.47248144    -0.24000
H1098       H  0.35658101  0.85744795  0.48347903     0.15000
H1099       H  0.41047633  0.79371751  0.86845362     0.15000
C1100       C  0.44513785  0.85373858  0.86321637    -0.23900
H1101       H  0.30555167  0.81189212  0.44957137     0.05200
H1102       H  0.31626010  0.79930091  0.52874595     0.08500
H1103       H  0.30644368  0.77383765  0.45390173     0.08500
H1104       H  0.46458504  0.86058643  0.90071600     0.08400
H1105       H  0.44565190  0.87407978  0.83302661     0.08400
H1106       H  0.44976187  0.83682579  0.82751509     0.05200
C1107       C  0.14265718  0.65179162  0.40956967    -0.20600
C1108       C  0.13043379  0.61966173  0.42295917    -0.07100
C1109       C  0.15308185  0.60520938  0.43937150     0.13700
C1110       C  0.19102907  0.62425150  0.94670807    -0.20600
C1111       C  0.19718441  0.65478218  0.43067233    -0.07200
C1112       C  0.17566026  0.66914939  0.41263994     0.13700
C1113       C  0.18799664  0.70312688  0.39785637    -0.24000
H1114       H  0.12646303  0.66341408  0.39717275     0.15000
H1115       H  0.20868004  0.61458055  0.96078250     0.15000
C1116       C  0.15143757  0.57163286  0.96278081    -0.23900
H1117       H  0.16861540  0.71034886  0.38083757     0.05200
H1118       H  0.20591067  0.70816997  0.35667028     0.08500
H1119       H  0.19905588  0.71661160  0.44417107     0.08500
H1120       H  0.14251057  0.55584294  0.91827734     0.08400
H1121       H  0.13389498  0.56591918  0.00460198     0.08400
H1122       H  0.17235324  0.56704832  0.98175789     0.05200
C1123       C  0.31003760  0.68551706  0.51763050     0.29700
C1124       C  0.31298172  0.68593089  0.86146980     0.29700
C1125       C  0.31116697  0.65687247  0.47628900    -0.06500
C1126       C  0.28066437  0.68798580  0.47679209    -0.07300
C1127       C  0.33579962  0.71173754  0.47675986    -0.07100
C1128       C  0.31209350  0.65684146  0.90175114    -0.06500
C1129       C  0.28425719  0.69044592  0.90148516    -0.07200
C1130       C  0.34111314  0.70977859  0.90253731    -0.07100
C1131       C  0.31407285  0.62921627  0.88183956    -0.32500
N1132       N  0.31686068  0.61360444  0.93781664     0.14000
C1133       C  0.31481070  0.63016235  0.49577976    -0.32500
H1134       H  0.31905134  0.62437072  0.54699482     0.15900
C1135       C  0.25318362  0.68048637  0.88121325    -0.31500
N1136       N  0.23092578  0.67185323  0.43498929     0.12700
C1137       C  0.24865458  0.67651187  0.49267876    -0.31500
C1138       C  0.35878982  0.73899555  0.88112971    -0.31800
N1139       N  0.35745732  0.75921816  0.43067418     0.15200
H1140       H  0.36792559  0.74502515  0.83069100     0.15800
C1141       C  0.34366491  0.74347360  0.48616067    -0.31800
H1142       H  0.33414492  0.75419907  0.52487439     0.15800
H1143       H  0.23894794  0.66909648  0.54266074     0.15800
H1144       H  0.31846069  0.62308322  0.83023009     0.15900
H1145       H  0.24501556  0.67412558  0.82956882     0.15800
C1146       C  0.31404732  0.68608339  0.76804279     0.29700
C1147       C  0.31359555  0.68476860  0.61172263     0.29700
C1148       C  0.34204309  0.68071302  0.72710060    -0.06500
C1149       C  0.28763678  0.66114566  0.72773409    -0.07300
C1150       C  0.31243755  0.71496372  0.72762683    -0.07100
C1151       C  0.34171541  0.67927305  0.65202533    -0.06500
C1152       C  0.28661779  0.66088759  0.65337082    -0.07200
C1153       C  0.31584893  0.71482930  0.65279570    -0.07100
C1154       C  0.36348034  0.66541411  0.63456751    -0.32500
N1155       N  0.37665584  0.65895803  0.69193092     0.14000
C1156       C  0.36391883  0.66814357  0.74736617    -0.32500
H1157       H  0.36792886  0.66300190  0.79929398     0.15900
C1158       C  0.26581281  0.63214295  0.63506240    -0.31500
N1159       N  0.25491963  0.61547034  0.69209634     0.12700
C1160       C  0.26879715  0.63246283  0.74748496    -0.31500
C1161       C  0.33942660  0.74273912  0.64184223    -0.31800
N1162       N  0.34375197  0.76164111  0.69572587     0.13200
H1163       H  0.35842780  0.74576321  0.60622792     0.15800
C1164       C  0.32643123  0.74562402  0.74763165    -0.31800
H1165       H  0.32654756  0.75474662  0.79834305     0.15800
H1166       H  0.26363483  0.62490522  0.79953754     0.15800
H1167       H  0.36775295  0.65829117  0.58382088     0.15900
H1168       H  0.25816334  0.62441340  0.58372371     0.15800
N1169       N  0.05106243  0.57900729  0.90637733    -0.06400
N1170       N  0.07568345  0.60603747  0.90678166    -0.58500
N1171       N  0.05446764  0.56569400  0.77100503    -0.06100
N1172       N  0.08031705  0.59056552  0.76278253    -0.60600
N1173       N  0.03004521  0.57496004  0.76809513    -0.05700
N1174       N  0.03875675  0.60418009  0.75081264    -0.58500
N1175       N  0.06256219  0.55633786  0.90947866    -0.05300
N1176       N  0.09312827  0.56717302  0.91693484    -0.61000
C1177       C  0.10191083  0.59790301  0.91352324     0.95800
C1178       C  0.07005600  0.61454530  0.75226930     0.95600
N1179       N  0.52604697  0.95943159  0.78536279    -0.06600
N1180       N  0.53212743  0.93706146  0.75166214    -0.59100
N1181       N  0.06003414  0.97247119  0.89873319    -0.04700
N1182       N  0.08797008  0.97030566  0.89937387    -0.60300
N1183       N  0.03751885  0.94453700  0.89874897    -0.06600
N1184       N  0.05074371  0.92310353  0.89610393    -0.59400
N1185       N  0.04519581  0.48020449  0.76831189    -0.04300
N1186       N  0.06825342  0.47097987  0.74649386    -0.60400
Mn1187     Mn  0.05257707  0.52271065  0.83173580     1.18400
C1188       C  0.55149913  0.44915319  0.71420610     0.97900
C1189       C  0.08218874  0.93970617  0.89696770     0.98500
N1190       N  0.45414148  0.56003038  0.86021485    -0.06600
N1191       N  0.44164565  0.58194947  0.86428153    -0.62900
N1192       N  0.44121001  0.03171142  0.97084220    -0.05400
N1193       N  0.41913476  0.03579372  0.50669639    -0.63600
N1194       N  0.96847994  0.55979998  0.93747262    -0.06100
N1195       N  0.96875727  0.57124405  0.50591248    -0.63200
N1196       N  0.43100740  0.53235419  0.86151285    -0.05000
N1197       N  0.40336134  0.53540208  0.86194335    -0.63900
Mn1198     Mn  0.00192781  0.56816447  0.85635823     1.10700
C1199       C  0.41021604  0.56628490  0.86384441     0.99100
C1200       C  0.43638744  0.06163789  0.54268314     0.99200
N1201       N  0.45720215  0.93002725  0.95248357    -0.06100
N1202       N  0.44860140  0.89996491  0.95919652    -0.61500
N1203       N  0.42223994  0.96115827  0.81000643    -0.05500
N1204       N  0.39162679  0.95011534  0.80064197    -0.58200
N1205       N  0.43399050  0.93878544  0.80825417    -0.06800
N1206       N  0.41016229  0.91168492  0.80341989    -0.61100
N1207       N  0.43268427  0.93898662  0.95419508    -0.05800
N1208       N  0.40657094  0.91396959  0.95672198    -0.58300
Mn1209     Mn  0.48616100  0.95117779  0.86119300     1.20200
Mn1210     Mn  0.44199235  0.98940921  0.90350733     1.10100
Cl1211     Cl  0.49341224  0.51088103  0.87624303    -0.86200
C1212       C  0.41716309  0.88980084  0.95997012     0.96100
C1213       C  0.38405922  0.91920705  0.79544841     0.95900
N1214       N  0.08131503  0.53283970  0.67405973    -0.06400
N1215       N  0.10489736  0.53919330  0.71677984    -0.58500
N1216       N  0.06314812  0.56134120  0.56063162    -0.06100
N1217       N  0.08744007  0.58628362  0.54481329    -0.60600
N1218       N  0.04638267  0.56851633  0.60739179    -0.05700
N1219       N  0.05662382  0.59899994  0.61763028    -0.58500
N1220       N  0.08979123  0.52475812  0.61424498    -0.05300
N1221       N  0.11910392  0.52585073  0.61473441    -0.61000
C1222       C  0.12853550  0.53548166  0.67908712     0.95800
C1223       C  0.08240614  0.60990385  0.57817723     0.95600
N1224       N  0.46639990  0.01240152  0.58645717    -0.06600
N1225       N  0.44322271  0.02016763  0.10314822    -0.59100
N1226       N  0.04101955  0.97906996  0.52541133    -0.04700
N1227       N  0.06438642  0.96809197  0.53228230    -0.60300
N1228       N  0.01389139  0.95547844  0.52235491    -0.06600
N1229       N  0.01861757  0.92873442  0.52664546    -0.59400
N1230       N  0.00942106  0.51198826  0.49181916    -0.04300
N1231       N  0.99382371  0.54773712  0.05946171    -0.60400
Mn1232     Mn  0.05233124  0.51174947  0.53618413     1.18400
C1233       C  0.44799282  0.54908100  0.10211177     0.97900
C1234       C  0.05012305  0.93650393  0.53228815     0.98500
N1235       N  0.47705770  0.55288153  0.73657744    -0.06600
N1236       N  0.47139042  0.57920848  0.73189179    -0.62900
N1237       N  0.50000516  0.97575719  0.66586410    -0.05400
N1238       N  0.50839086  0.95133971  0.65311508    -0.63600
N1239       N  0.02702156  0.48575292  0.63850665    -0.06100
N1240       N  0.05128011  0.47531402  0.63435886    -0.63200
N1241       N  0.45039453  0.52863552  0.73569095    -0.05000
N1242       N  0.42639318  0.53875029  0.72947156    -0.63900
Mn1243     Mn  0.03219702  0.53462012  0.68822272     1.10700
C1244       C  0.43971291  0.57040875  0.72756145     0.99100
C1245       C  0.54038795  0.96266195  0.65221747     0.99200
N1246       N  0.44970253  0.91998012  0.61115223    -0.06100
N1247       N  0.44692411  0.89089250  0.59838242    -0.61500
N1248       N  0.40709901  0.96288709  0.63251539    -0.05500
N1249       N  0.37902683  0.96475695  0.64071871    -0.58200
N1250       N  0.41256335  0.95925203  0.56804294    -0.06800
N1251       N  0.38899488  0.95966152  0.53049891    -0.61100
N1252       N  0.44595948  0.92427528  0.67595011    -0.05800
N1253       N  0.44236370  0.89859634  0.70882146    -0.58300
Mn1254     Mn  0.46348711  0.96387381  0.54341264     1.20200
Mn1255     Mn  0.45054065  0.97506614  0.70560254     1.10100
Cl1256     Cl  0.49302656  0.50589597  0.62877142    -0.86200
C1257       C  0.44096297  0.87735702  0.65989741     0.96100
C1258       C  0.36757080  0.96184864  0.57655711     0.95900
C1259       C  0.17787633  0.81845043  0.71389914     0.29700
C1260       C  0.17822441  0.81899924  0.87013732     0.29700
C1261       C  0.17744956  0.84744238  0.75602205    -0.06500
C1262       C  0.15237480  0.79252992  0.75503974    -0.07300
C1263       C  0.20688779  0.81489323  0.75328972    -0.07100
C1264       C  0.17885426  0.84783438  0.83009687    -0.06500
C1265       C  0.15004007  0.79442206  0.82969910    -0.07200
C1266       C  0.20668676  0.81458417  0.82895172    -0.07100
C1267       C  0.17617359  0.87477000  0.85172976    -0.32500
N1268       N  0.16948226  0.88888787  0.79753637     0.14000
C1269       C  0.17222460  0.87393948  0.73925882    -0.32500
H1270       H  0.16758125  0.88051786  0.68925730     0.15900
C1271       C  0.13372662  0.76439926  0.84974596    -0.31500
N1272       N  0.13335450  0.74441807  0.79858832     0.12700
C1273       C  0.14600843  0.76126352  0.74394506    -0.31500
C1274       C  0.23791546  0.82505135  0.84760001    -0.31800
N1275       N  0.25657852  0.83162095  0.79157265     0.13200
H1276       H  0.24648368  0.83189385  0.89862590     0.15800
C1277       C  0.23831989  0.82558163  0.73508571    -0.31800
H1278       H  0.24742257  0.83246817  0.68453160     0.15800
H1279       H  0.15770727  0.75247913  0.70613137     0.15800
H1280       H  0.17378156  0.88104765  0.90411644     0.15900
H1281       H  0.12537905  0.75750694  0.90020019     0.15800
C1282       C  0.17734664  0.82014898  0.96380131     0.29700
C1283       C  0.17460429  0.81833581  0.61966634     0.29700
C1284       C  0.14862038  0.82481760  0.00465955    -0.06500
C1285       C  0.17973425  0.79164755  0.00395174    -0.07300
C1286       C  0.20324150  0.84546210  0.00544448    -0.07100
C1287       C  0.14789012  0.82521697  0.57812065    -0.06500
C1288       C  0.17200915  0.78812710  0.57737311    -0.07200
C1289       C  0.20238822  0.84204001  0.58007644    -0.07100
C1290       C  0.12819168  0.84116615  0.59579818    -0.32500
N1291       N  0.11709660  0.84978001  0.04374078     0.14000
C1292       C  0.12889876  0.84057312  0.98695323    -0.32500
H1293       H  0.12539113  0.84733465  0.93633655     0.15900
C1294       C  0.15047211  0.75852275  0.58695097    -0.31500
N1295       N  0.15103137  0.74371766  0.03218039     0.12700
C1296       C  0.16844950  0.76118650  0.98214560    -0.31500
C1297       C  0.22632122  0.86798264  0.60152173    -0.31800
N1298       N  0.24248961  0.88568651  0.04468544     0.13200
H1299       H  0.23297902  0.87504374  0.65370351     0.15800
C1300       C  0.22779675  0.87138120  0.98713429    -0.31800
H1301       H  0.23590561  0.87829060  0.93586178     0.15800
H1302       H  0.17020624  0.75322069  0.93132515     0.15800
H1303       H  0.12411587  0.84784001  0.64549351     0.15900
H1304       H  0.13143514  0.75246081  0.62309402     0.15800
C1305       C  0.08364383  0.66234696  0.54602720    -0.20600
C1306       C  0.10030927  0.64335691  0.56610385    -0.07100
C1307       C  0.13350267  0.65662015  0.57251405     0.13700
C1308       C  0.14905594  0.68799278  0.55567582    -0.20600
C1309       C  0.13249918  0.70683699  0.53452263    -0.07200
C1310       C  0.09928537  0.69402322  0.53154581     0.13700
C1311       C  0.08029696  0.71399969  0.51534400    -0.24000
H1312       H  0.05820459  0.65236732  0.54209169     0.15000
H1313       H  0.17279950  0.69989599  0.05717779     0.15000
C1314       C  0.15319797  0.63897155  0.59967775    -0.23900
H1315       H  0.05466657  0.70024600  0.51363931     0.05200
H1316       H  0.08741548  0.72477470  0.46520721     0.08500
H1317       H  0.08421549  0.73263475  0.55457487     0.08500
H1318       H  0.13258694  0.61695990  0.10879950     0.08400
H1319       H  0.16616519  0.65096528  0.64564335     0.08400
H1320       H  0.16557858  0.63974605  0.05868789     0.05200
C1321       C  0.32826400  0.91407139  0.53680927    -0.20600
C1322       C  0.33476364  0.94387812  0.56454066    -0.07100
C1323       C  0.31025159  0.95406354  0.58529230     0.13700
C1324       C  0.27919840  0.93395636  0.57635007    -0.20600
C1325       C  0.27298176  0.90408004  0.54910567    -0.07200
C1326       C  0.29766328  0.89364938  0.53097169     0.13700
C1327       C  0.29288138  0.86072880  0.50932150    -0.24000
H1328       H  0.34727281  0.90588537  0.52345139     0.15000
H1329       H  0.25974687  0.94104857  0.59192439     0.15000
C1330       C  0.31684723  0.98572499  0.61671047    -0.23900
H1331       H  0.30687854  0.85140626  0.54286997     0.05200
H1332       H  0.30212653  0.86246624  0.95447435     0.08500
H1333       H  0.26829880  0.84452828  0.51343884     0.08500
H1334       H  0.33101530  0.00377073  0.58080054     0.08400
H1335       H  0.32998816  0.98753981  0.66486861     0.08400
H1336       H  0.29481077  0.99012280  0.62869693     0.05200
C1337       C  0.09974826  0.92476739  0.54288614    -0.20600
C1338       C  0.06664215  0.91350393  0.53900595    -0.07100
C1339       C  0.05045193  0.88064249  0.53704125     0.13700
C1340       C  0.06773345  0.86050450  0.53711838    -0.20600
C1341       C  0.10061051  0.87195047  0.53894307    -0.07200
C1342       C  0.11683489  0.90444709  0.54206447     0.13700
C1343       C  0.15224323  0.91765229  0.54340534    -0.24000
H1344       H  0.11245981  0.94966415  0.54436474     0.15000
H1345       H  0.05571046  0.83535540  0.05468857     0.15000
C1346       C  0.01503801  0.86616382  0.53444043    -0.23900
H1347       H  0.16131093  0.94350530  0.54552602     0.05200
H1348       H  0.16177714  0.91025593  0.49674108     0.08500
H1349       H  0.16103612  0.90922380  0.58874965     0.08500
H1350       H  0.00407376  0.86983857  0.00870764     0.08400
H1351       H  0.00459449  0.87373139  0.57967699     0.08400
H1352       H  0.00725105  0.84083120  0.06453904     0.05200
C1353       C  0.09047686  0.69679563  0.82492089    -0.20600
C1354       C  0.12085004  0.71096738  0.79936782    -0.07100
C1355       C  0.13581192  0.69235543  0.76526540     0.13700
C1356       C  0.11878269  0.66078152  0.75286644    -0.20600
C1357       C  0.08749029  0.64718779  0.77326528    -0.07200
C1358       C  0.07330175  0.66534634  0.81212120     0.13700
C1359       C  0.03996495  0.65277328  0.83954940    -0.24000
H1360       H  0.07921424  0.71116080  0.85054682     0.15000
H1361       H  0.12987266  0.64664772  0.72651394     0.15000
C1362       C  0.16979858  0.70452702  0.74303297    -0.23900
H1363       H  0.03454351  0.67005025  0.87283169     0.05200
H1364       H  0.03626173  0.63191814  0.87072669     0.08500
H1365       H  0.02281215  0.64707098  0.79706207     0.08500
H1366       H  0.18311579  0.72751780  0.76647422     0.08400
H1367       H  0.17124230  0.70632902  0.68687147     0.08400
H1368       H  0.18153036  0.68818078  0.75850607     0.05200
C1369       C  0.34498152  0.86464351  0.79823563    -0.20600
C1370       C  0.35079538  0.89684941  0.79639480    -0.07100
C1371       C  0.32446993  0.90698264  0.79563352     0.13700
C1372       C  0.29388054  0.88486405  0.79323128    -0.20600
C1373       C  0.28848570  0.85304431  0.79289351    -0.07200
C1374       C  0.31402977  0.84274749  0.79662354     0.13700
C1375       C  0.30823628  0.80859091  0.79838676    -0.24000
H1376       H  0.36463798  0.85651303  0.80022139     0.15000
H1377       H  0.27371395  0.89227685  0.79212643     0.15000
C1378       C  0.32763682  0.94082347  0.79839468    -0.23900
H1379       H  0.33063917  0.80462900  0.80610300     0.05200
H1380       H  0.29721834  0.79728397  0.74997512     0.08500
H1381       H  0.29194753  0.79760828  0.84055426     0.08500
H1382       H  0.34087414  0.95306592  0.75335981     0.08400
H1383       H  0.33964179  0.95192808  0.84617547     0.08400
H1384       H  0.30438919  0.94378580  0.79801101     0.05200
C1385       C  0.09447108  0.89703437  0.84529014    -0.20600
C1386       C  0.10542398  0.92784467  0.86849225    -0.07100
C1387       C  0.13765638  0.94680411  0.86042082     0.13700
C1388       C  0.15781222  0.93400114  0.82865131    -0.20600
C1389       C  0.14684656  0.90313729  0.80676184    -0.07200
C1390       C  0.11476204  0.88421699  0.81515460     0.13700
C1391       C  0.10185488  0.84996525  0.79681866    -0.24000
H1392       H  0.06992960  0.88256434  0.85174297     0.15000
H1393       H  0.18278961  0.94733819  0.82474620     0.15000
C1394       C  0.15170964  0.97996532  0.88667542    -0.23900
H1395       H  0.07677840  0.83880873  0.81223611     0.05200
H1396       H  0.11512289  0.83714474  0.82209711     0.08500
H1397       H  0.10269146  0.84683789  0.74173421     0.08500
H1398       H  0.14636440  0.98110655  0.94173093     0.08400
H1399       H  0.14249573  0.99531191  0.85731249     0.08400
H1400       H  0.17774293  0.98946111  0.88096930     0.05200
C1401       C  0.37800430  0.60629221  0.67873494    -0.20600
C1402       C  0.39364930  0.63768999  0.69555657    -0.07100
C1403       C  0.42440730  0.64695601  0.72223857     0.13700
C1404       C  0.43898868  0.62470988  0.72999140    -0.20600
C1405       C  0.42301533  0.59287445  0.71502583    -0.07200
C1406       C  0.39185357  0.58373169  0.68965923     0.13700
C1407       C  0.37239841  0.55033145  0.67544749    -0.24000
H1408       H  0.35411358  0.59929182  0.65975073     0.15000
H1409       H  0.46270320  0.63217179  0.75013196     0.15000
C1410       C  0.44173987  0.68033484  0.74263462    -0.23900
H1411       H  0.34884100  0.54816057  0.65604044     0.05200
H1412       H  0.36884572  0.53691340  0.72316605     0.08500
H1413       H  0.38392613  0.54019436  0.63656645     0.08500
H1414       H  0.42877210  0.68736686  0.78413370     0.08400
H1415       H  0.44381799  0.69554427  0.69816822     0.08400
H1416       H  0.46581862  0.68393003  0.76134497     0.05200
C1417       C  0.42388617  0.82229002  0.68872435    -0.20600
C1418       C  0.41611654  0.84731519  0.66661819    -0.07100
C1419       C  0.38427498  0.84440483  0.65846634     0.13700
C1420       C  0.36083317  0.81616088  0.67331998    -0.20600
C1421       C  0.36831396  0.79119525  0.69696780    -0.07200
C1422       C  0.40025429  0.79380983  0.70246404     0.13700
C1423       C  0.41016810  0.76668994  0.71855825    -0.24000
H1424       H  0.44843859  0.82486728  0.69441140     0.15000
H1425       H  0.33641807  0.81296890  0.66383752     0.15000
C1426       C  0.37473320  0.87085103  0.63442995    -0.23900
H1427       H  0.42456271  0.76270281  0.67584481     0.05200
H1428       H  0.38995839  0.74480033  0.72581623     0.08500
H1429       H  0.42464099  0.77187606  0.76552021     0.08500
H1430       H  0.38504459  0.87858594  0.58380381     0.08400
H1431       H  0.38306303  0.89082193  0.67039439     0.08400
H1432       H  0.34876671  0.86400496  0.63049176     0.05200
C1433       C  0.18469651  0.54437304  0.65787671    -0.20600
C1434       C  0.16182511  0.55279162  0.69371666    -0.07100
C1435       C  0.17124833  0.58027720  0.73431788     0.13700
C1436       C  0.20259689  0.59877427  0.73633702    -0.20600
C1437       C  0.22485344  0.59176299  0.69680221    -0.07200
C1438       C  0.21640432  0.56393491  0.65846668     0.13700
C1439       C  0.24061654  0.55502478  0.61900716    -0.24000
H1440       H  0.17751918  0.52327901  0.62688079     0.15000
H1441       H  0.20956326  0.62064956  0.76455672     0.15000
C1442       C  0.14878606  0.59297737  0.76911413    -0.23900
H1443       H  0.23004327  0.53169186  0.59447477     0.05200
H1444       H  0.25947747  0.55439830  0.65394585     0.08500
H1445       H  0.25118592  0.57199214  0.57826736     0.08500
H1446       H  0.13458216  0.57630920  0.80725940     0.08400
H1447       H  0.13394989  0.59750804  0.72951938     0.08400
H1448       H  0.16089141  0.61554314  0.79560922     0.05200
C1449       C  0.37022125  0.61661773  0.94634961    -0.20600
C1450       C  0.33871651  0.59818651  0.93438246    -0.07100
C1451       C  0.33081370  0.56952191  0.90035900     0.13700
C1452       C  0.35497272  0.55990193  0.87751555    -0.20600
C1453       C  0.38671710  0.57902208  0.88655723    -0.07200
C1454       C  0.39455359  0.60799689  0.92101779     0.13700
C1455       C  0.42782407  0.63066227  0.92973065    -0.24000
H1456       H  0.37560529  0.63942065  0.96985690     0.15000
H1457       H  0.34896341  0.53770719  0.85083788     0.15000
C1458       C  0.29696598  0.55003487  0.88617467    -0.23900
H1459       H  0.42855731  0.65250195  0.95607725     0.05200
H1460       H  0.43914725  0.63721231  0.87919829     0.08500
H1461       H  0.44163811  0.62038910  0.96105809     0.08500
H1462       H  0.28609068  0.56300190  0.85368030     0.08400
H1463       H  0.28785479  0.54595542  0.45637621     0.08400
H1464       H  0.29482003  0.52789123  0.85934874     0.05200
C1465       C  0.36818803  0.84337484  0.96001111    -0.20600
C1466       C  0.39926038  0.85757230  0.93788694    -0.07100
C1467       C  0.41364729  0.83980810  0.89861906     0.13700
C1468       C  0.39861301  0.80656396  0.39603114    -0.20600
C1469       C  0.36921699  0.79293133  0.92289381    -0.07200
C1470       C  0.35264914  0.81120391  0.95191804     0.13700
C1471       C  0.31864518  0.79775634  0.97348556    -0.24000
H1472       H  0.35628551  0.85722484  0.98522909     0.15000
H1473       H  0.41056809  0.79210916  0.37357310     0.15000
C1474       C  0.44610565  0.85184803  0.36723236    -0.23900
H1475       H  0.30543713  0.81144356  0.95140330     0.05200
H1476       H  0.31685952  0.79887509  0.02983632     0.08500
H1477       H  0.30693301  0.77349379  0.95483066     0.08500
H1478       H  0.46520065  0.85895916  0.40560999     0.08400
H1479       H  0.44709688  0.87186423  0.33529598     0.08400
H1480       H  0.45087377  0.83443193  0.33325412     0.05200
C1481       C  0.14618775  0.65011674  0.91020347    -0.20600
C1482       C  0.13593569  0.61809662  0.92313740    -0.07100
C1483       C  0.15916893  0.60517822  0.94297275     0.13700
C1484       C  0.18557287  0.62297014  0.44250884    -0.20600
C1485       C  0.20084690  0.65585519  0.93313107    -0.07200
C1486       C  0.17842361  0.66895868  0.91503381     0.13700
C1487       C  0.18893968  0.70314156  0.90284359    -0.24000
H1488       H  0.12902195  0.66047811  0.89709567     0.15000
H1489       H  0.20238110  0.61201338  0.45502278     0.15000
C1490       C  0.14434482  0.57095705  0.45460278    -0.23900
H1491       H  0.16873381  0.70953755  0.88753036     0.05200
H1492       H  0.20699849  0.70978357  0.86198561     0.08500
H1493       H  0.19953167  0.71621886  0.94989196     0.08500
H1494       H  0.13429683  0.55648431  0.40884562     0.08400
H1495       H  0.12763462  0.56428642  0.49783211     0.08400
H1496       H  0.16506184  0.56499295  0.46946452     0.05200
C1497       C  0.81750732  0.18253713  0.03433161     0.29700
C1498       C  0.81865014  0.18420686  0.37778802     0.29700
C1499       C  0.82049728  0.15460773  0.99241729    -0.06500
C1500       C  0.78776622  0.18350791  0.99443168    -0.07300
C1501       C  0.84143153  0.21036054  0.99328005    -0.07100
C1502       C  0.82274339  0.15724988  0.41789903    -0.06500
C1503       C  0.78816555  0.18376111  0.41867884    -0.07200
C1504       C  0.84392798  0.21196012  0.41931743    -0.07100
C1505       C  0.82358616  0.12921595  0.39731105    -0.32500
N1506       N  0.82699430  0.11355632  0.45251961     0.14000
C1507       C  0.82344664  0.12729375  0.01081906    -0.32500
H1508       H  0.82677275  0.12056827  0.06181901     0.15900
C1509       C  0.75711648  0.17486516  0.39959238    -0.31500
N1510       N  0.73862094  0.17095300  0.95694343     0.12700
C1511       C  0.75677329  0.17546529  0.01347729    -0.31500
C1512       C  0.85813612  0.24241559  0.39869687    -0.31800
N1513       N  0.85730546  0.25811669  0.94604469     0.15200
H1514       H  0.86737500  0.24952470  0.34901648     0.15800
C1515       C  0.84584159  0.24186018  0.00243214    -0.31800
H1516       H  0.83557299  0.25149686  0.04188949     0.15800
H1517       H  0.74762221  0.16946262  0.06444596     0.15800
H1518       H  0.82523715  0.12194640  0.34513584     0.15900
H1519       H  0.74827441  0.16887755  0.34828802     0.15800
C1520       C  0.81910079  0.18249669  0.28417563     0.29700
C1521       C  0.81992796  0.18129048  0.12816753     0.29700
C1522       C  0.84889172  0.17987674  0.24433974    -0.06500
C1523       C  0.79455683  0.15546987  0.24282915    -0.07300
C1524       C  0.81410321  0.20967604  0.24325939    -0.07100
C1525       C  0.84904433  0.17843983  0.16901429    -0.06500
C1526       C  0.79426031  0.15554197  0.16861286    -0.07200
C1527       C  0.81857367  0.21003725  0.16886025    -0.07100
C1528       C  0.86938698  0.16280887  0.15227572    -0.32500
N1529       N  0.88164097  0.15540539  0.20961644     0.14000
C1530       C  0.86964570  0.16569575  0.26464958    -0.32500
H1531       H  0.87333634  0.16028939  0.31648726     0.15900
C1532       C  0.77045571  0.12913967  0.14850857    -0.31500
N1533       N  0.75689070  0.11283628  0.20459097     0.12700
C1534       C  0.77201931  0.12818557  0.26131857    -0.31500
C1535       C  0.84037717  0.23895742  0.15902874    -0.31800
N1536       N  0.84259369  0.25729205  0.21323927     0.13200
H1537       H  0.85989788  0.24356574  0.12409410     0.15800
C1538       C  0.82478059  0.24045045  0.26342664    -0.31800
H1539       H  0.82212590  0.24955879  0.31301631     0.15800
H1540       H  0.76551311  0.12094834  0.31319229     0.15800
H1541       H  0.87309982  0.15502553  0.10179371     0.15900
H1542       H  0.76229218  0.12323829  0.09672963     0.15800
N1543       N  0.55955743  0.07423013  0.44526219    -0.06400
N1544       N  0.58408137  0.10058628  0.45298574    -0.58500
N1545       N  0.56009921  0.07051792  0.30422530    -0.06100
N1546       N  0.58520284  0.09669284  0.30052797    -0.60600
N1547       N  0.53487654  0.07851014  0.30350560    -0.05700
N1548       N  0.54218321  0.10827765  0.29298974    -0.58500
N1549       N  0.57012524  0.05111416  0.44343111    -0.05300
N1550       N  0.59998330  0.06054471  0.45889805    -0.61000
C1551       C  0.60891049  0.09136385  0.46431171     0.95800
C1552       C  0.57352774  0.12001581  0.29364036     0.95600
N1553       N  0.00729959  0.45952945  0.27341063    -0.06600
N1554       N  0.01450496  0.43462624  0.25880225    -0.59100
N1555       N  0.55741435  0.48165141  0.39638417    -0.04700
N1556       N  0.58535959  0.47938649  0.39648588    -0.60300
N1557       N  0.53484482  0.45370757  0.39693480    -0.06600
N1558       N  0.54803565  0.43221611  0.39401588    -0.59400
N1559       N  0.55079845  0.98543761  0.27966755    -0.04300
N1560       N  0.57323481  0.97966203  0.24478855    -0.60400
Mn1561     Mn  0.55924100  0.02388169  0.35342427     1.18400
C1562       C  0.05417673  0.94113251  0.21482644     0.97900
C1563       C  0.57948948  0.44871600  0.39453189     0.98500
N1564       N  0.95958342  0.05428056  0.36319457    -0.06600
N1565       N  0.94814987  0.07696602  0.36825953    -0.62900
N1566       N  0.93420805  0.53391672  0.44828487    -0.05400
N1567       N  0.92465238  0.53728426  0.99001868    -0.63600
N1568       N  0.46609049  0.05765929  0.46752321    -0.06100
N1569       N  0.46007076  0.07997369  0.00422148    -0.63200
N1570       N  0.93580280  0.02709372  0.36561551    -0.05000
N1571       N  0.90867828  0.03126001  0.36785951    -0.63900
Mn1572     Mn  0.50777296  0.06266281  0.39670570     1.10700
C1573       C  0.91658795  0.06230808  0.36991624     0.99100
C1574       C  0.94677964  0.55848386  0.02833913     0.99200
N1575       N  0.94263128  0.44051661  0.43121208    -0.06100
N1576       N  0.93499725  0.41121430  0.44806173    -0.61500
N1577       N  0.91395534  0.46455996  0.28570185    -0.05500
N1578       N  0.88393659  0.45206818  0.27029936    -0.58200
N1579       N  0.92700902  0.44316719  0.28876858    -0.06800
N1580       N  0.90426997  0.41548265  0.28076023    -0.61100
N1581       N  0.91758161  0.44783648  0.42160621    -0.05800
N1582       N  0.89232791  0.42120422  0.42328243    -0.58300
Mn1583     Mn  0.97339809  0.45270374  0.34744434     1.20200
Mn1584     Mn  0.92353218  0.49534015  0.36998707     1.10100
Cl1585     Cl  0.99674075  0.00326455  0.37804398    -0.86200
C1586       C  0.90379640  0.39847724  0.44143260     0.96100
C1587       C  0.87765659  0.42138165  0.26740001     0.95900
N1588       N  0.58081041  0.05420178  0.18268549    -0.06400
N1589       N  0.60457709  0.05456580  0.22040010    -0.58500
N1590       N  0.54698269  0.08812680  0.07536830    -0.06100
N1591       N  0.54949623  0.11333724  0.04182382    -0.60600
N1592       N  0.54390595  0.09290597  0.14017958    -0.05700
N1593       N  0.54656383  0.12201238  0.15236780    -0.58500
N1594       N  0.58644671  0.05046342  0.11834019    -0.05300
N1595       N  0.61493877  0.04947673  0.11036676    -0.61000
C1596       C  0.62622503  0.05285935  0.17474514     0.95800
C1597       C  0.55146876  0.13490979  0.09012644     0.95600
N1598       N  0.97167198  0.49785316  0.06241165    -0.06600
N1599       N  0.96015457  0.49723143  0.51273934    -0.59100
N1600       N  0.53430896  0.48241129  0.02270210    -0.04700
N1601       N  0.55818137  0.47210221  0.02888692    -0.60300
N1602       N  0.50755867  0.45830397  0.02121789    -0.06600
N1603       N  0.51304340  0.43196759  0.02524327    -0.59400
N1604       N  0.49287432  0.03769212  0.08208639    -0.04300
N1605       N  0.48345972  0.06201312  0.59823735    -0.60400
Mn1606     Mn  0.54248115  0.03727019  0.04576601     1.18400
C1607       C  0.95591103  0.04794358  0.60601083     0.97900
C1608       C  0.54456812  0.44047112  0.03021023     0.98500
N1609       N  0.98070696  0.04652253  0.23946463    -0.06600
N1610       N  0.97522693  0.07300649  0.23506772    -0.62900
N1611       N  0.99745214  0.46311048  0.14247237    -0.05400
N1612       N  0.00481849  0.43752813  0.14121973    -0.63600
N1613       N  0.52625677  0.00093135  0.16219096    -0.06100
N1614       N  0.55094520  0.99341566  0.14575306    -0.63200
N1615       N  0.95381298  0.02246492  0.23881487    -0.05000
N1616       N  0.92996569  0.03287720  0.23315331    -0.63900
Mn1617     Mn  0.52976014  0.04926224  0.20743620     1.10700
C1618       C  0.94349387  0.06451826  0.23124780     0.99100
C1619       C  0.03612302  0.44777788  0.15414344     0.99200
N1620       N  0.94630805  0.41183056  0.10497103    -0.06100
N1621       N  0.94303348  0.38220228  0.09859400    -0.61500
N1622       N  0.90894719  0.45873696  0.11959694    -0.05500
N1623       N  0.88327103  0.46539693  0.12813103    -0.58200
N1624       N  0.91253568  0.45211622  0.05587254    -0.06800
N1625       N  0.88908317  0.45437573  0.01988146    -0.61100
N1626       N  0.94347077  0.41865245  0.16886728    -0.05800
N1627       N  0.94072390  0.39481060  0.20755329    -0.58300
Mn1628     Mn  0.95895332  0.44879712  0.02559479     1.20200
Mn1629     Mn  0.95151888  0.46938198  0.18909047     1.10100
Cl1630     Cl  0.99765523  0.99981768  0.13138098    -0.86200
C1631       C  0.93845097  0.37151869  0.16325121     0.96100
C1632       C  0.87021225  0.46138530  0.06569568     0.95900
C1633       C  0.67427379  0.32507349  0.22166162     0.29700
C1634       C  0.67590529  0.32597164  0.37739177     0.29700
C1635       C  0.67678370  0.35507315  0.26355499    -0.06500
C1636       C  0.64746580  0.30012408  0.26383077    -0.07300
C1637       C  0.70185316  0.31872712  0.25964993    -0.07100
C1638       C  0.67834100  0.35551277  0.33758531    -0.06500
C1639       C  0.64611570  0.30293122  0.33862878    -0.07200
C1640       C  0.70267442  0.31885107  0.33499869    -0.07100
C1641       C  0.67449956  0.38205372  0.35916263    -0.32500
N1642       N  0.66755597  0.39594899  0.30486861     0.14000
C1643       C  0.67099553  0.38132181  0.24662402    -0.32500
H1644       H  0.66506133  0.38698435  0.19676005     0.15900
C1645       C  0.62845985  0.27373587  0.36127799    -0.31500
N1646       N  0.62650354  0.25254593  0.31202527     0.12700
C1647       C  0.63864159  0.26800530  0.25507987    -0.31500
C1648       C  0.73421589  0.32718597  0.35080666    -0.31800
N1649       N  0.75177717  0.33188219  0.29297381     0.13200
H1650       H  0.74413446  0.33417211  0.40087148     0.15800
C1651       C  0.73238985  0.32619101  0.23850037    -0.31800
H1652       H  0.74032901  0.33241458  0.18716337     0.15800
H1653       H  0.64793423  0.25689141  0.21693469     0.15800
H1654       H  0.67165046  0.38819512  0.41147638     0.15900
H1655       H  0.62109142  0.26790047  0.41269725     0.15800
C1656       C  0.67551680  0.32698972  0.47076553     0.29700
C1657       C  0.67215644  0.32654374  0.12763327     0.29700
C1658       C  0.64728002  0.33290462  0.51005037    -0.06500
C1659       C  0.67619489  0.29786640  0.51148981    -0.07300
C1660       C  0.70229718  0.35151583  0.51296744    -0.07100
C1661       C  0.64439103  0.33176647  0.08717786    -0.06500
C1662       C  0.67156152  0.29724213  0.08590016    -0.07200
C1663       C  0.69913136  0.35123950  0.08746136    -0.07100
C1664       C  0.62437087  0.34726872  0.10595628    -0.32500
N1665       N  0.61556401  0.35820399  0.54486371     0.14000
C1666       C  0.62731389  0.34792765  0.48952547    -0.32500
H1667       H  0.62331572  0.35309373  0.43777520     0.15900
C1668       C  0.64945836  0.26869203  0.09655561    -0.31500
N1669       N  0.64662465  0.25065358  0.54267830     0.12700
C1670       C  0.66369512  0.26707288  0.49090018    -0.31500
C1671       C  0.72521276  0.37536455  0.10770056    -0.31800
N1672       N  0.74607342  0.38676729  0.55273003     0.13200
H1673       H  0.73326061  0.38134710  0.15954757     0.15800
C1674       C  0.73025442  0.37401037  0.49509810    -0.31800
H1675       H  0.73948744  0.37944828  0.44405739     0.15800
H1676       H  0.66373772  0.25790476  0.43999683     0.15800
H1677       H  0.61977737  0.35338765  0.15714576     0.15900
H1678       H  0.62963764  0.26527658  0.12991781     0.15800
C1679       C  0.56722987  0.18862802  0.05395765    -0.20600
C1680       C  0.57585001  0.16486591  0.08020553    -0.07100
C1681       C  0.60793599  0.16842395  0.08694061     0.13700
C1682       C  0.63076811  0.19617191  0.06678682    -0.20600
C1683       C  0.62237422  0.22024702  0.04114331    -0.07200
C1684       C  0.59019187  0.21695691  0.03705470     0.13700
C1685       C  0.57927336  0.24343476  0.02099835    -0.24000
H1686       H  0.54249080  0.18540789  0.04875536     0.15000
H1687       H  0.65526368  0.19971600  0.57139107     0.15000
C1688       C  0.61831878  0.14321424  0.11508356    -0.23900
H1689       H  0.56451723  0.24682736  0.06365140     0.05200
H1690       H  0.56486921  0.23789697  0.97396203     0.08500
H1691       H  0.59891029  0.26580043  0.01458177     0.08500
H1692       H  0.60808272  0.13771417  0.66534976     0.08400
H1693       H  0.64437170  0.15067398  0.11865852     0.08400
H1694       H  0.60855545  0.12198398  0.58156397     0.05200
C1695       C  0.82667735  0.41401014  0.08499971    -0.20600
C1696       C  0.83684111  0.44433052  0.06063438    -0.07100
C1697       C  0.81596472  0.45560814  0.02693043     0.13700
C1698       C  0.78401862  0.43705158  0.02543682    -0.20600
C1699       C  0.77391038  0.40704770  0.05214841    -0.07200
C1700       C  0.79576462  0.39453680  0.07722000     0.13700
C1701       C  0.78785829  0.36044361  0.09097142    -0.24000
H1702       H  0.84346934  0.40503797  0.10689853     0.15000
H1703       H  0.76699477  0.44551705  0.00261662     0.15000
C1704       C  0.82737596  0.48633539  0.99132836    -0.23900
H1705       H  0.80319691  0.35154632  0.05904131     0.05200
H1706       H  0.76605778  0.34352300  0.58571617     0.08500
H1707       H  0.79224920  0.35720008  0.14521315     0.08500
H1708       H  0.84516518  0.48635010  0.95210385     0.08400
H1709       H  0.83812768  0.50539061  0.02842827     0.08400
H1710       H  0.80779785  0.49091685  0.96567097     0.05200
C1711       C  0.59473048  0.43021050  0.04415701    -0.20600
C1712       C  0.56163035  0.41827754  0.04069238    -0.07100
C1713       C  0.54587913  0.38544473  0.04465436     0.13700
C1714       C  0.56360178  0.36585933  0.04869228    -0.20600
C1715       C  0.59645574  0.37786129  0.04918750    -0.07200
C1716       C  0.61225805  0.41040614  0.04767580     0.13700
C1717       C  0.64764312  0.42415301  0.04889205    -0.24000
H1718       H  0.60707673  0.45513785  0.04200317     0.15000
H1719       H  0.55384444  0.34214183  0.54265154     0.15000
C1720       C  0.51049796  0.37040063  0.04472208    -0.23900
H1721       H  0.65632887  0.44999071  0.04760790     0.05200
H1722       H  0.65739676  0.41572248  0.00393145     0.08500
H1723       H  0.65656033  0.41716759  0.09599166     0.08500
H1724       H  0.50285950  0.37699787  0.49148338     0.08400
H1725       H  0.50051352  0.37945959  0.08851077     0.08400
H1726       H  0.50454838  0.34583130  0.54256336     0.05200
C1727       C  0.58784780  0.20375563  0.34986784    -0.20600
C1728       C  0.61710822  0.21933186  0.32044457    -0.07100
C1729       C  0.63489386  0.20162002  0.29419939     0.13700
C1730       C  0.62095598  0.16901210  0.28983801    -0.20600
C1731       C  0.58999300  0.15354386  0.31192264    -0.07200
C1732       C  0.57407627  0.17126553  0.34688262     0.13700
C1733       C  0.54242913  0.15675820  0.38127822    -0.24000
H1734       H  0.57477689  0.21735391  0.37153034     0.15000
H1735       H  0.63420976  0.15588364  0.26725946     0.15000
C1736       C  0.66860631  0.21611481  0.27112090    -0.23900
H1737       H  0.53632172  0.17392104  0.41356023     0.05200
H1738       H  0.54282315  0.13775241  0.41491886     0.08500
H1739       H  0.52344147  0.14783198  0.34288796     0.08500
H1740       H  0.67946807  0.24072779  0.28824218     0.08400
H1741       H  0.66985842  0.21445158  0.21474284     0.08400
H1742       H  0.68286464  0.20336226  0.29303389     0.05200
C1743       C  0.84016117  0.36707824  0.28912968    -0.20600
C1744       C  0.84481899  0.39844032  0.27507286    -0.07100
C1745       C  0.81779366  0.40739034  0.27070977     0.13700
C1746       C  0.78772704  0.38483762  0.27763889    -0.20600
C1747       C  0.78340642  0.35375933  0.28957966    -0.07200
C1748       C  0.80965849  0.34468322  0.29625226     0.13700
C1749       C  0.80501591  0.31130495  0.31013669    -0.24000
H1750       H  0.86036772  0.35997264  0.29419514     0.15000
H1751       H  0.76703655  0.39130420  0.27365647     0.15000
C1752       C  0.81957227  0.44045396  0.25981721    -0.23900
H1753       H  0.82781212  0.30792678  0.31712486     0.05200
H1754       H  0.79222211  0.29630304  0.26708274     0.08500
H1755       H  0.79079065  0.30385214  0.35707111     0.08500
H1756       H  0.83216462  0.44946154  0.21173617     0.08400
H1757       H  0.83154843  0.45545683  0.30359758     0.08400
H1758       H  0.79586248  0.44223451  0.25594664     0.05200
C1759       C  0.59184092  0.40596271  0.34201787    -0.20600
C1760       C  0.60283657  0.43641522  0.36777270    -0.07100
C1761       C  0.63546698  0.45456494  0.36485391     0.13700
C1762       C  0.65606959  0.44122328  0.33696408    -0.20600
C1763       C  0.64509438  0.41058191  0.31329110    -0.07200
C1764       C  0.61249895  0.39250193  0.31585142     0.13700
C1765       C  0.59839644  0.35844796  0.29623679    -0.24000
H1766       H  0.56694769  0.39201331  0.34398460     0.15000
H1767       H  0.68122779  0.45404245  0.33691485     0.15000
C1768       C  0.64932409  0.48750602  0.39226691    -0.23900
H1769       H  0.58544308  0.34498755  0.34044672     0.05200
H1770       H  0.61568261  0.34791808  0.28022539     0.08500
H1771       H  0.58148722  0.35543420  0.25384743     0.08500
H1772       H  0.64229774  0.48854552  0.44629928     0.08400
H1773       H  0.64142514  0.50319442  0.36085823     0.08400
H1774       H  0.67547398  0.49654182  0.39036625     0.05200
C1775       C  0.88051639  0.10148196  0.19917799    -0.20600
C1776       C  0.89746171  0.13303182  0.21285800    -0.07100
C1777       C  0.92921566  0.14187779  0.23274870     0.13700
C1778       C  0.94363534  0.11927073  0.23599207    -0.20600
C1779       C  0.92670984  0.08740238  0.22310312    -0.07200
C1780       C  0.89442960  0.07856805  0.20531561     0.13700
C1781       C  0.87419924  0.04516099  0.19307933    -0.24000
H1782       H  0.85592678  0.09474681  0.18525441     0.15000
H1783       H  0.96814376  0.12654008  0.25085980     0.15000
C1784       C  0.94775173  0.17525502  0.25091316    -0.23900
H1785       H  0.84981489  0.04288785  0.17931343     0.05200
H1786       H  0.87272808  0.03161126  0.24001685     0.08500
H1787       H  0.88416301  0.03522092  0.15069812     0.08500
H1788       H  0.93661404  0.18272097  0.29516787     0.08400
H1789       H  0.94825202  0.19027888  0.20691667     0.08400
H1790       H  0.97241024  0.17856551  0.26479859     0.05200
C1791       C  0.92202259  0.31847992  0.20772199    -0.20600
C1792       C  0.91398389  0.34190369  0.17766765    -0.07100
C1793       C  0.88209828  0.33828113  0.16837886     0.13700
C1794       C  0.85879810  0.31113121  0.18954420    -0.20600
C1795       C  0.86648238  0.28709819  0.21706261    -0.07200
C1796       C  0.89856502  0.29031704  0.22464309     0.13700
C1797       C  0.90889763  0.26386341  0.24432391    -0.24000
H1798       H  0.94662737  0.32160675  0.21491771     0.15000
H1799       H  0.83429575  0.30737606  0.17933538     0.15000
C1800       C  0.87239016  0.36255980  0.13454968    -0.23900
H1801       H  0.92414695  0.25972869  0.20356758     0.05200
H1802       H  0.88894492  0.24177471  0.25110602     0.08500
H1803       H  0.92254713  0.26987413  0.29241913     0.08500
H1804       H  0.88246383  0.36684777  0.08276713     0.08400
H1805       H  0.88097631  0.38464306  0.16371631     0.08400
H1806       H  0.84646061  0.35520614  0.13065337     0.05200
C1807       C  0.68005643  0.05514143  0.14665628    -0.20600
C1808       C  0.65987336  0.06384221  0.19033349    -0.07100
C1809       C  0.67259704  0.08531807  0.24432222     0.13700
C1810       C  0.70485002  0.09773792  0.25238555    -0.20600
C1811       C  0.72519252  0.09134402  0.20565278    -0.07200
C1812       C  0.71277991  0.06877346  0.15351630     0.13700
C1813       C  0.73324909  0.05889414  0.10439069    -0.24000
H1814       H  0.67031617  0.03840179  0.10575604     0.15000
H1815       H  0.71425435  0.11547853  0.29138033     0.15000
C1816       C  0.65330410  0.09876057  0.28876796    -0.23900
H1817       H  0.72662819  0.03320814  0.10554447     0.05200
H1818       H  0.75859196  0.06921396  0.11745136     0.08500
H1819       H  0.72973176  0.06574901  0.05195950     0.08500
H1820       H  0.63682749  0.08040435  0.32073656     0.08400
H1821       H  0.64059162  0.10947621  0.25545333     0.08400
H1822       H  0.66794545  0.11751897  0.32342265     0.05200
C1823       C  0.88025706  0.11555191  0.45463837    -0.20600
C1824       C  0.84831963  0.09752446  0.44703274    -0.07100
C1825       C  0.83901484  0.06823071  0.41535667     0.13700
C1826       C  0.86213080  0.05759412  0.39028512    -0.20600
C1827       C  0.89424880  0.07617746  0.39499438    -0.07200
C1828       C  0.90355083  0.10578052  0.42731256     0.13700
C1829       C  0.93727487  0.12784569  0.43197291    -0.24000
H1830       H  0.88666215  0.13873575  0.47681541     0.15000
H1831       H  0.85492930  0.03491314  0.36541615     0.15000
C1832       C  0.80471332  0.04897515  0.40630405    -0.23900
H1833       H  0.93915564  0.15031495  0.45694384     0.05200
H1834       H  0.94759356  0.13323934  0.38027883     0.08500
H1835       H  0.95135611  0.11765859  0.46272509     0.08500
H1836       H  0.79314521  0.06162000  0.37470601     0.08400
H1837       H  0.79104110  0.04264402  0.95589054     0.08400
H1838       H  0.80144337  0.02627382  0.38078557     0.05200
C1839       C  0.85800962  0.34688502  0.45683993    -0.20600
C1840       C  0.88859890  0.36332249  0.43236020    -0.07100
C1841       C  0.90637522  0.34520634  0.40656000     0.13700
C1842       C  0.89557305  0.30582366  0.90532113    -0.20600
C1843       C  0.86531212  0.29630430  0.44073768    -0.07200
C1844       C  0.84627615  0.31377665  0.46190935     0.13700
C1845       C  0.81334750  0.29791223  0.48831251    -0.24000
H1846       H  0.84382357  0.36001451  0.47535830     0.15000
H1847       H  0.90835670  0.29164745  0.88511279     0.15000
C1848       C  0.94014230  0.35074760  0.86467603    -0.23900
H1849       H  0.79877674  0.31254812  0.48057743     0.05200
H1850       H  0.81396458  0.29377327  0.54368092     0.08500
H1851       H  0.80160367  0.27556601  0.46055924     0.08500
H1852       H  0.95958588  0.36097101  0.90105999     0.08400
H1853       H  0.93928831  0.36845310  0.82824200     0.08400
H1854       H  0.94588323  0.33246518  0.83580214     0.05200
C1855       C  0.65063855  0.14369963  0.45384551    -0.20600
C1856       C  0.64260539  0.11138155  0.46084691    -0.07100
C1857       C  0.66717936  0.09866873  0.46212871     0.13700
C1858       C  0.69788081  0.12015435  0.95746690    -0.20600
C1859       C  0.70610894  0.15081657  0.45624992    -0.07200
C1860       C  0.68229715  0.16354920  0.45140450     0.13700
C1861       C  0.69064907  0.19804704  0.44448084    -0.24000
H1862       H  0.63221313  0.15348364  0.45043468     0.15000
H1863       H  0.71666434  0.11072205  0.95783831     0.15000
C1864       C  0.66071149  0.06575714  0.95362227    -0.23900
H1865       H  0.66935329  0.20428662  0.43792700     0.05200
H1866       H  0.70617854  0.20630535  0.39957454     0.08500
H1867       H  0.70340177  0.21018880  0.49066242     0.08500
H1868       H  0.64752327  0.05527529  0.90667269     0.08400
H1869       H  0.64769953  0.05404013  0.99923989     0.08400
H1870       H  0.68296722  0.06082592  0.95182728     0.05200
C1871       C  0.81791454  0.18424761  0.53422663     0.29700
C1872       C  0.81739137  0.18171691  0.87798080     0.29700
C1873       C  0.82318610  0.15750654  0.49178733    -0.06500
C1874       C  0.78774079  0.18330255  0.49380250    -0.07300
C1875       C  0.84061094  0.21376921  0.49380959    -0.07100
C1876       C  0.81970090  0.15405228  0.91839298    -0.06500
C1877       C  0.78795845  0.18368503  0.91919785    -0.07200
C1878       C  0.84407712  0.20797714  0.91863242    -0.07100
C1879       C  0.82167541  0.12653202  0.89802099    -0.32500
N1880       N  0.82561193  0.11135046  0.95357560     0.14000
C1881       C  0.82503172  0.12959540  0.50979700    -0.32500
H1882       H  0.82719878  0.12218749  0.56085631     0.15900
C1883       C  0.75698315  0.17542671  0.90035713    -0.31500
N1884       N  0.73865657  0.16985842  0.45617891     0.12700
C1885       C  0.75676406  0.17473601  0.51278670    -0.31500
C1886       C  0.85854911  0.23783250  0.89714774    -0.31800
N1887       N  0.85616698  0.26256031  0.44776774     0.15200
H1888       H  0.86653675  0.24449956  0.84670712     0.15800
C1889       C  0.84390075  0.24531308  0.50307803    -0.31800
H1890       H  0.83328769  0.25440596  0.54289954     0.15800
H1891       H  0.74764961  0.16887588  0.56382940     0.15800
H1892       H  0.82434284  0.11972277  0.84593469     0.15900
H1893       H  0.74803203  0.16913453  0.84920645     0.15800
C1894       C  0.81786979  0.18075743  0.78430648     0.29700
C1895       C  0.81921031  0.18125847  0.62816747     0.29700
C1896       C  0.84798172  0.17938238  0.74439675    -0.06500
C1897       C  0.79408626  0.15370902  0.74182952    -0.07300
C1898       C  0.81215041  0.20790063  0.74473486    -0.07100
C1899       C  0.84864604  0.17909103  0.66902691    -0.06500
C1900       C  0.79403413  0.15434585  0.66748193    -0.07200
C1901       C  0.81605796  0.20882120  0.67013387    -0.07100
C1902       C  0.86950135  0.16408748  0.65174434    -0.32500
N1903       N  0.88152883  0.15616954  0.70879254     0.14000
C1904       C  0.86886394  0.16535752  0.76418684    -0.32500
H1905       H  0.87200777  0.15906880  0.81568018     0.15900
C1906       C  0.76999242  0.12817537  0.64685218    -0.31500
N1907       N  0.75605123  0.11183358  0.70268923     0.12700
C1908       C  0.77121037  0.12663375  0.75975684    -0.31500
C1909       C  0.83630369  0.23816911  0.65962805    -0.31800
N1910       N  0.83911947  0.25600646  0.71488911     0.13200
H1911       H  0.85562557  0.24305544  0.62419263     0.15800
C1912       C  0.82254877  0.23856718  0.76581902    -0.31800
H1913       H  0.82144207  0.24715630  0.81672355     0.15800
H1914       H  0.76400612  0.11957293  0.81145116     0.15800
H1915       H  0.87361638  0.15692055  0.60097225     0.15900
H1916       H  0.76162703  0.12265757  0.59509393     0.15800
N1917       N  0.55893185  0.07600554  0.94277513    -0.06400
N1918       N  0.58347017  0.10252252  0.94878549    -0.58500
N1919       N  0.55859878  0.07104804  0.80257307    -0.06100
N1920       N  0.58333391  0.09752057  0.79826297    -0.60600
N1921       N  0.53304578  0.07845390  0.80144046    -0.05700
N1922       N  0.53975191  0.10804486  0.78994640    -0.58500
N1923       N  0.56951572  0.05289348  0.94235846    -0.05300
N1924       N  0.59939039  0.06257639  0.95762459    -0.61000
C1925       C  0.60836062  0.09345149  0.96086333     0.95800
C1926       C  0.57105077  0.12037766  0.79069952     0.95600
N1927       N  0.02002088  0.45461788  0.77620269    -0.06600
N1928       N  0.02616861  0.42951662  0.75779259    -0.59100
N1929       N  0.55725100  0.48233405  0.89799886    -0.04700
N1930       N  0.58501251  0.47970548  0.89831215    -0.60300
N1931       N  0.53443874  0.45462458  0.89757767    -0.06600
N1932       N  0.54724954  0.43281751  0.89406652    -0.59400
N1933       N  0.55008442  0.98629822  0.77956889    -0.04300
N1934       N  0.57248192  0.98052810  0.74451906    -0.60400
Mn1935     Mn  0.55862189  0.02493804  0.85295153     1.18400
C1936       C  0.05420691  0.94139580  0.71211376     0.97900
C1937       C  0.57879996  0.44899420  0.89565574     0.98500
N1938       N  0.95704878  0.05100510  0.86699534    -0.06600
N1939       N  0.94618561  0.07415678  0.87025276    -0.62900
N1940       N  0.94221900  0.53498845  0.93837263    -0.05400
N1941       N  0.92586856  0.52888718  0.51207096    -0.63600
N1942       N  0.46552983  0.05823672  0.96724798    -0.06100
N1943       N  0.46006063  0.07948473  0.50313978    -0.63200
N1944       N  0.93306364  0.02399827  0.86666241    -0.05000
N1945       N  0.90616590  0.02865220  0.86719748    -0.63900
Mn1946     Mn  0.50675013  0.06328739  0.89553112     1.10700
C1947       C  0.91456677  0.05984954  0.86994159     0.99100
C1948       C  0.95386511  0.54548712  0.54022435     0.99200
N1949       N  0.94955293  0.43114295  0.92550106    -0.06100
N1950       N  0.94218963  0.40184256  0.93978478    -0.61500
N1951       N  0.91566594  0.45899460  0.78604054    -0.05500
N1952       N  0.88498658  0.44720048  0.77995568    -0.58200
N1953       N  0.92797116  0.43709892  0.78536257    -0.06800
N1954       N  0.90469358  0.40955302  0.78144553    -0.61100
N1955       N  0.92482937  0.43941290  0.92503342    -0.05800
N1956       N  0.89917579  0.41400962  0.93298767    -0.58300
Mn1957     Mn  0.97997867  0.45414464  0.84117192     1.20200
Mn1958     Mn  0.93706564  0.49076293  0.87289183     1.10100
Cl1959     Cl  0.99581672  0.99618918  0.88343718    -0.86200
C1960       C  0.91078368  0.39083633  0.94397473     0.96100
C1961       C  0.87803800  0.41640997  0.77501773     0.95900
N1962       N  0.57936410  0.05461768  0.68249454    -0.06400
N1963       N  0.60323995  0.05522303  0.72023427    -0.58500
N1964       N  0.54537194  0.08856979  0.57343516    -0.06100
N1965       N  0.54868424  0.11392637  0.53963314    -0.60600
N1966       N  0.54223642  0.09342602  0.63816617    -0.05700
N1967       N  0.54547049  0.12269755  0.65015621    -0.58500
N1968       N  0.58498314  0.05084724  0.61819339    -0.05300
N1969       N  0.61347632  0.04992926  0.61019610    -0.61000
C1970       C  0.62484560  0.05347517  0.67445002     0.95800
C1971       C  0.55083691  0.13560560  0.58791041     0.95600
N1972       N  0.98252157  0.48826486  0.48960566    -0.06600
N1973       N  0.94873023  0.50967163  0.06624227    -0.59100
N1974       N  0.53559397  0.48375673  0.52178981    -0.04700
N1975       N  0.55950123  0.47351837  0.52837149    -0.60300
N1976       N  0.50882479  0.45965144  0.52043072    -0.06600
N1977       N  0.51437120  0.43334363  0.52506987    -0.59400
N1978       N  0.49152408  0.03752986  0.58392150    -0.04300
N1979       N  0.48496619  0.06224022  0.09669198    -0.60400
Mn1980     Mn  0.54108470  0.03765285  0.54557513     1.18400
C1981       C  0.95430224  0.04528149  0.10438876     0.97900
C1982       C  0.54595186  0.44189240  0.53008965     0.98500
N1983       N  0.97988000  0.04700000  0.74253788    -0.06600
N1984       N  0.97460353  0.07362434  0.73915085    -0.62900
N1985       N  0.00185369  0.46101440  0.64645770    -0.05400
N1986       N  0.00936931  0.43538492  0.64593188    -0.63600
N1987       N  0.52488719  0.00109232  0.66183400    -0.06100
N1988       N  0.54970934  0.99377756  0.64566425    -0.63200
N1989       N  0.95290376  0.02307002  0.74017628    -0.05000
N1990       N  0.92928477  0.03372296  0.73398096    -0.63900
Mn1991     Mn  0.52811148  0.04956621  0.70576228     1.10700
C1992       C  0.94296342  0.06532463  0.73357434     0.99100
C1993       C  0.04105452  0.44528240  0.65124507     0.99200
N1994       N  0.95176507  0.40605310  0.60919145    -0.06100
N1995       N  0.94698921  0.37623340  0.60114830    -0.61500
N1996       N  0.91655186  0.45798969  0.63483618    -0.05500
N1997       N  0.88933782  0.46193776  0.64400596    -0.58200
N1998       N  0.92070435  0.45145695  0.57183908    -0.06800
N1999       N  0.89574445  0.45081831  0.53729128    -0.61100
N2000       N  0.94842851  0.41286912  0.67304637    -0.05800
N2001       N  0.94343784  0.38828835  0.71048628    -0.58300
Mn2002     Mn  0.96723764  0.44531513  0.54044869     1.20200
Mn2003     Mn  0.95825958  0.46518320  0.70089021     1.10100
Cl2004     Cl  0.99702785  0.00067898  0.63176553    -0.86200
C2005       C  0.94072714  0.36516802  0.66523535     0.96100
C2006       C  0.87617821  0.45718718  0.58170013     0.95900
C2007       C  0.67434252  0.32558845  0.72195730     0.29700
C2008       C  0.67433173  0.32589087  0.87810504     0.29700
C2009       C  0.67619106  0.35536512  0.76432818    -0.06500
C2010       C  0.64702435  0.30051138  0.76308493    -0.07300
C2011       C  0.70143021  0.31900355  0.76177049    -0.07100
C2012       C  0.67729325  0.35557410  0.83847099    -0.06500
C2013       C  0.64500471  0.30307710  0.83791750    -0.07200
C2014       C  0.70139889  0.31889638  0.83708941    -0.07100
C2015       C  0.67354139  0.38209134  0.86033421    -0.32500
N2016       N  0.66681886  0.39617810  0.80612038     0.14000
C2017       C  0.67020032  0.38155128  0.74783740    -0.32500
H2018       H  0.66506912  0.38782624  0.69791744     0.15900
C2019       C  0.62677531  0.27404723  0.86014816    -0.31500
N2020       N  0.62469474  0.25295103  0.81071117     0.12700
C2021       C  0.63781798  0.26835338  0.75428115    -0.31500
C2022       C  0.73257853  0.32645472  0.85496273    -0.31800
N2023       N  0.75075396  0.33050323  0.79818659     0.13200
H2024       H  0.74194182  0.33346429  0.90551926     0.15800
C2025       C  0.73208996  0.32550304  0.74252084    -0.31800
H2026       H  0.74074787  0.33128631  0.69154788     0.15800
H2027       H  0.64731712  0.25698807  0.71687461     0.15800
H2028       H  0.67018998  0.38782918  0.91266655     0.15900
H2029       H  0.61941815  0.26813502  0.91155072     0.15800
C2030       C  0.67333089  0.32640312  0.97139970     0.29700
C2031       C  0.67336332  0.32746839  0.62731980     0.29700
C2032       C  0.64482598  0.33141470  0.01193045    -0.06500
C2033       C  0.67511899  0.29753109  0.01115298    -0.07300
C2034       C  0.69955756  0.35129334  0.01303582    -0.07100
C2035       C  0.64649384  0.33362815  0.58509176    -0.06500
C2036       C  0.67211563  0.29781127  0.58606407    -0.07200
C2037       C  0.70135937  0.35150161  0.58754085    -0.07100
C2038       C  0.62655048  0.34941549  0.60189355    -0.32500
N2039       N  0.61346664  0.35668324  0.04957702     0.14000
C2040       C  0.62522714  0.34709550  0.99335704    -0.32500
H2041       H  0.62175947  0.35353486  0.94248693     0.15900
C2042       C  0.64961419  0.26945022  0.59649599    -0.31500
N2043       N  0.64620207  0.25012184  0.04234804     0.12700
C2044       C  0.66251974  0.26680967  0.99012711    -0.31500
C2045       C  0.72854560  0.37424424  0.60839753    -0.31800
N2046       N  0.74152405  0.38873286  0.05139091     0.13200
H2047       H  0.73630189  0.37982766  0.66053287     0.15800
C2048       C  0.72608148  0.37506778  0.99422826    -0.31800
H2049       H  0.73484863  0.38072623  0.94287969     0.15800
H2050       H  0.66195623  0.25785968  0.93886222     0.15800
H2051       H  0.62205430  0.35619726  0.65207703     0.15900
H2052       H  0.62970542  0.26629614  0.62940506     0.15800
C2053       C  0.56720143  0.18977947  0.55414116    -0.20600
C2054       C  0.57551845  0.16549786  0.57850078    -0.07100
C2055       C  0.60753501  0.16866179  0.58457628     0.13700
C2056       C  0.63060620  0.19630684  0.56439206    -0.20600
C2057       C  0.62250182  0.22090842  0.54074808    -0.07200
C2058       C  0.59039786  0.21806727  0.53777524     0.13700
C2059       C  0.57984123  0.24491756  0.52292484    -0.24000
H2060       H  0.54252508  0.18695439  0.54981899     0.15000
H2061       H  0.65545201  0.19999304  0.07472906     0.15000
C2062       C  0.61757560  0.14334031  0.61327446    -0.23900
H2063       H  0.56585893  0.24868571  0.56667645     0.05200
H2064       H  0.56476444  0.23954460  0.47688210     0.08500
H2065       H  0.59966058  0.26703656  0.51514925     0.08500
H2066       H  0.60834992  0.13680406  0.16650394     0.08400
H2067       H  0.64361812  0.15033416  0.61570471     0.08400
H2068       H  0.61001862  0.12218292  0.08215652     0.05200
C2069       C  0.83035134  0.41082644  0.59902964    -0.20600
C2070       C  0.84234562  0.44088086  0.57335677    -0.07100
C2071       C  0.82309519  0.45191329  0.53274916     0.13700
C2072       C  0.79096563  0.43382000  0.52667012    -0.20600
C2073       C  0.77897965  0.40418945  0.55528659    -0.07200
C2074       C  0.79951496  0.39161334  0.58640054     0.13700
C2075       C  0.79034122  0.35754973  0.60154869    -0.24000
H2076       H  0.84572451  0.40190101  0.62646030     0.15000
H2077       H  0.77523981  0.44250661  0.49927958     0.15000
C2078       C  0.83624647  0.48203819  0.49503624    -0.23900
H2079       H  0.80587353  0.34804430  0.57225824     0.05200
H2080       H  0.76336089  0.34597186  0.07764499     0.08500
H2081       H  0.79341183  0.35439026  0.65641101     0.08500
H2082       H  0.85575999  0.48152616  0.46106953     0.08400
H2083       H  0.84506877  0.50173899  0.53143788     0.08400
H2084       H  0.81804676  0.48612933  0.46309435     0.05200
C2085       C  0.59631614  0.43165847  0.54311836    -0.20600
C2086       C  0.56321179  0.41966701  0.53908302    -0.07100
C2087       C  0.54765008  0.38674358  0.54037018     0.13700
C2088       C  0.56551787  0.36719424  0.54240538    -0.20600
C2089       C  0.59838421  0.37929136  0.54361410    -0.07200
C2090       C  0.61400196  0.41190418  0.54481879     0.13700
C2091       C  0.64936934  0.42579304  0.54715939    -0.24000
H2092       H  0.60853688  0.45663390  0.54308500     0.15000
H2093       H  0.55184072  0.34084240  0.05056585     0.15000
C2094       C  0.51228667  0.37157590  0.53958485    -0.23900
H2095       H  0.65792921  0.45164523  0.54769096     0.05200
H2096       H  0.65944978  0.41806715  0.50169248     0.08500
H2097       H  0.65806778  0.41819305  0.59379021     0.08500
H2098       H  0.50087126  0.37505755  0.99611051     0.08400
H2099       H  0.50201742  0.37986499  0.58410203     0.08400
H2100       H  0.50266397  0.34472863  0.04976036     0.05200
C2101       C  0.58415697  0.20443300  0.84334328    -0.20600
C2102       C  0.61447789  0.21973154  0.81878204    -0.07100
C2103       C  0.63269462  0.20186370  0.79629794     0.13700
C2104       C  0.61852486  0.16934455  0.79075548    -0.20600
C2105       C  0.58688999  0.15406510  0.80843220    -0.07200
C2106       C  0.57010628  0.17197864  0.83954826     0.13700
C2107       C  0.53735787  0.15779921  0.86929370    -0.24000
H2108       H  0.57070440  0.21826537  0.86195422     0.15000
H2109       H  0.63223498  0.15615981  0.77085888     0.15000
C2110       C  0.66708721  0.21618040  0.77833514    -0.23900
H2111       H  0.53028413  0.17522489  0.89848457     0.05200
H2112       H  0.53652132  0.13909427  0.90516636     0.08500
H2113       H  0.51970199  0.14860663  0.82823549     0.08500
H2114       H  0.67747794  0.24088255  0.79512543     0.08400
H2115       H  0.67019995  0.21428097  0.72247421     0.08400
H2116       H  0.68040678  0.20343606  0.80401841     0.05200
C2117       C  0.83926662  0.36254304  0.79522393    -0.20600
C2118       C  0.84501966  0.39421768  0.78260026    -0.07100
C2119       C  0.81876847  0.40443582  0.77905218     0.13700
C2120       C  0.78829884  0.38279733  0.78591757    -0.20600
C2121       C  0.78280151  0.35140321  0.79643144    -0.07200
C2122       C  0.80828371  0.34103131  0.80203020     0.13700
C2123       C  0.80233827  0.30722634  0.81396319    -0.24000
H2124       H  0.85893437  0.35455124  0.79942910     0.15000
H2125       H  0.76817103  0.39018698  0.78239270     0.15000
C2126       C  0.82173198  0.43789902  0.76839274    -0.23900
H2127       H  0.82467480  0.30291596  0.82074599     0.05200
H2128       H  0.78943649  0.29308381  0.76994927     0.08500
H2129       H  0.78775326  0.29953924  0.86036392     0.08500
H2130       H  0.83460487  0.44674103  0.72049765     0.08400
H2131       H  0.83390498  0.45258983  0.81240635     0.08400
H2132       H  0.79842172  0.44055379  0.76429734     0.05200
C2133       C  0.59139134  0.40531938  0.84896307    -0.20600
C2134       C  0.60220513  0.43647922  0.87000988    -0.07100
C2135       C  0.63463157  0.45508657  0.86309026     0.13700
C2136       C  0.65507803  0.44167417  0.83476051    -0.20600
C2137       C  0.64419211  0.41059957  0.81450601    -0.07200
C2138       C  0.61195568  0.39199381  0.82159341     0.13700
C2139       C  0.59910100  0.35771949  0.80368513    -0.24000
H2140       H  0.56673056  0.39108436  0.85453829     0.15000
H2141       H  0.68011416  0.45486531  0.83166185     0.15000
C2142       C  0.64856480  0.48862269  0.88676692    -0.23900
H2143       H  0.57387685  0.34672802  0.81788919     0.05200
H2144       H  0.61207395  0.34496486  0.83003864     0.08500
H2145       H  0.60069036  0.35441574  0.74846039     0.08500
H2146       H  0.64277475  0.49069125  0.94129351     0.08400
H2147       H  0.63962635  0.50339970  0.85489741     0.08400
H2148       H  0.67464039  0.49799759  0.88202318     0.05200
C2149       C  0.88011657  0.10220926  0.70047874    -0.20600
C2150       C  0.89739567  0.13388013  0.71130690    -0.07100
C2151       C  0.92941635  0.14294690  0.72899481     0.13700
C2152       C  0.94366831  0.12027818  0.73397242    -0.20600
C2153       C  0.92639780  0.08826298  0.72406273    -0.07200
C2154       C  0.89396716  0.07932103  0.70739403     0.13700
C2155       C  0.87349286  0.04584318  0.69697931    -0.24000
H2156       H  0.85534868  0.09540457  0.68806908     0.15000
H2157       H  0.96834403  0.12767040  0.74753080     0.15000
C2158       C  0.94835577  0.17664769  0.74302630    -0.23900
H2159       H  0.84897282  0.04354099  0.68443513     0.05200
H2160       H  0.87246024  0.03265047  0.74423527     0.08500
H2161       H  0.88293920  0.03551714  0.65436187     0.08500
H2162       H  0.93789737  0.18529070  0.78671085     0.08400
H2163       H  0.94828996  0.19057199  0.69740690     0.08400
H2164       H  0.97317740  0.18013569  0.75577505     0.05200
C2165       C  0.92096192  0.31204781  0.70645437    -0.20600
C2166       C  0.91484318  0.33656743  0.67719447    -0.07100
C2167       C  0.88367906  0.33539877  0.66854283     0.13700
C2168       C  0.85901749  0.30985933  0.69205348    -0.20600
C2169       C  0.86467026  0.28464374  0.71935862    -0.07200
C2170       C  0.89616032  0.28522200  0.72423712     0.13700
C2171       C  0.90462000  0.25729533  0.74038138    -0.24000
H2172       H  0.94511863  0.31325552  0.71228240     0.15000
H2173       H  0.83489765  0.30802823  0.68297976     0.15000
C2174       C  0.87621469  0.36040669  0.63223970    -0.23900
H2175       H  0.91833190  0.25229358  0.69751862     0.05200
H2176       H  0.88378185  0.23631268  0.74737881     0.08500
H2177       H  0.91916406  0.26186310  0.78722068     0.08500
H2178       H  0.88613819  0.36294408  0.58011400     0.08400
H2179       H  0.88610480  0.38287810  0.65988129     0.08400
H2180       H  0.85053278  0.35449064  0.62824592     0.05200
C2181       C  0.67839220  0.05460163  0.64782654    -0.20600
C2182       C  0.65852423  0.06476022  0.68938363    -0.07100
C2183       C  0.67155376  0.08784369  0.74017441     0.13700
C2184       C  0.70384061  0.10021944  0.74757205    -0.20600
C2185       C  0.72387238  0.09172763  0.70357516    -0.07200
C2186       C  0.71114693  0.06802367  0.65403936     0.13700
C2187       C  0.73136394  0.05676923  0.60701478    -0.24000
H2188       H  0.66837036  0.03670584  0.60928718     0.15000
H2189       H  0.71361915  0.11906985  0.78404803     0.15000
C2190       C  0.65243219  0.10251286  0.78185316    -0.23900
H2191       H  0.72458167  0.03115857  0.61135819     0.05200
H2192       H  0.75676168  0.06731102  0.61943482     0.08500
H2193       H  0.72778220  0.06234763  0.55361093     0.08500
H2194       H  0.63635339  0.08515161  0.81639865     0.08400
H2195       H  0.63914421  0.11170945  0.74645820     0.08400
H2196       H  0.66719939  0.12237902  0.81390569     0.05200
C2197       C  0.87883031  0.11331946  0.95574071    -0.20600
C2198       C  0.84688204  0.09534283  0.94814312    -0.07100
C2199       C  0.83744106  0.06622452  0.91583528     0.13700
C2200       C  0.86040077  0.05550463  0.89066820    -0.20600
C2201       C  0.89252475  0.07396130  0.89528872    -0.07200
C2202       C  0.90202066  0.10362229  0.92758989     0.13700
C2203       C  0.93568707  0.12602209  0.93053193    -0.24000
H2204       H  0.88527940  0.13647245  0.97811635     0.15000
H2205       H  0.85302839  0.03287820  0.86554970     0.15000
C2206       C  0.80310671  0.04735190  0.90568257    -0.23900
H2207       H  0.93751168  0.14866168  0.95457801     0.05200
H2208       H  0.94554141  0.13097758  0.87836612     0.08500
H2209       H  0.95031448  0.11654167  0.96126833     0.08500
H2210       H  0.79195823  0.06031496  0.87388602     0.08400
H2211       H  0.79298971  0.04434889  0.45689252     0.08400
H2212       H  0.79971290  0.02470552  0.87979758     0.05200
C2213       C  0.86343640  0.34249199  0.96068822    -0.20600
C2214       C  0.89373051  0.35693302  0.93362028    -0.07100
C2215       C  0.90911059  0.33798565  0.90199750     0.13700
C2216       C  0.89441892  0.31253168  0.41084886    -0.20600
C2217       C  0.86697602  0.29130658  0.93800737    -0.07200
C2218       C  0.84976361  0.30975403  0.96347365     0.13700
C2219       C  0.81705721  0.29584733  0.99249954    -0.24000
H2220       H  0.85088971  0.35673162  0.98189113     0.15000
H2221       H  0.90870901  0.29937384  0.39311405     0.15000
C2222       C  0.93846299  0.35964820  0.37413414    -0.23900
H2223       H  0.80219585  0.30887362  0.97476127     0.05200
H2224       H  0.81809444  0.29745040  0.04895459     0.08500
H2225       H  0.80527415  0.27130843  0.97564990     0.08500
H2226       H  0.95641753  0.37114845  0.41338062     0.08400
H2227       H  0.93778161  0.37661279  0.33534014     0.08400
H2228       H  0.94633127  0.34198160  0.34814220     0.05200
C2229       C  0.65060138  0.14585984  0.95399464    -0.20600
C2230       C  0.64216333  0.11335641  0.95763833    -0.07100
C2231       C  0.66651346  0.10030186  0.95706483     0.13700
C2232       C  0.69843702  0.11881755  0.46118341    -0.20600
C2233       C  0.70594854  0.15228004  0.95662002    -0.07200
C2234       C  0.68242474  0.16546946  0.95374503     0.13700
C2235       C  0.69130713  0.20017608  0.95109791    -0.24000
H2236       H  0.63237362  0.15595034  0.95196082     0.15000
H2237       H  0.71742301  0.10970046  0.46324132     0.15000
C2238       C  0.66171252  0.06418439  0.46133670    -0.23900
H2239       H  0.67027463  0.20686636  0.94509542     0.05200
H2240       H  0.70735071  0.20945400  0.90739721     0.08500
H2241       H  0.70367767  0.21098871  0.99871815     0.08500
H2242       H  0.64907860  0.05300000  0.41430370     0.08400
H2243       H  0.64823081  0.05292626  0.50672564     0.08400
H2244       H  0.68409672  0.05949887  0.46177305     0.05200
C2245       C  0.81341099  0.67824592  0.01244959     0.29700
C2246       C  0.81435339  0.67941407  0.35656188     0.29700
C2247       C  0.81348350  0.64883305  0.97090048    -0.06500
C2248       C  0.78524082  0.68256650  0.97223648    -0.07300
C2249       C  0.83964620  0.70391940  0.97186352    -0.07100
C2250       C  0.81363520  0.65033909  0.39591611    -0.06500
C2251       C  0.78594205  0.68398832  0.39834640    -0.07200
C2252       C  0.84259042  0.70356105  0.39744102    -0.07100
C2253       C  0.81097308  0.62148440  0.37437784    -0.32500
N2254       N  0.81070011  0.60369357  0.42899235     0.14000
C2255       C  0.81666763  0.62134939  0.98851067    -0.32500
H2256       H  0.82116519  0.61498510  0.03904392     0.15900
C2257       C  0.75474296  0.67665464  0.38085211    -0.31500
N2258       N  0.73567038  0.67041666  0.93614060     0.12700
C2259       C  0.75433972  0.67533813  0.99184445    -0.31500
C2260       C  0.85802072  0.73357108  0.37712938    -0.31800
N2261       N  0.85888159  0.75159091  0.92558339     0.15200
H2262       H  0.86668850  0.74049023  0.32687263     0.15800
C2263       C  0.84620384  0.73546355  0.98120224    -0.31800
H2264       H  0.83522919  0.74513623  0.01885009     0.15800
H2265       H  0.74550536  0.66962930  0.04312713     0.15800
H2266       H  0.81349406  0.61517283  0.32187253     0.15900
H2267       H  0.74527690  0.67005686  0.33018858     0.15800
C2268       C  0.81524120  0.67890110  0.26284861     0.29700
C2269       C  0.81541306  0.67818968  0.10651112     0.29700
C2270       C  0.84374524  0.67417172  0.22152987    -0.06500
C2271       C  0.78944412  0.65354084  0.22185265    -0.07300
C2272       C  0.81239767  0.70735647  0.22274563    -0.07100
C2273       C  0.84359825  0.67370911  0.14623740    -0.06500
C2274       C  0.78875776  0.65348818  0.14763655    -0.07200
C2275       C  0.81622138  0.70783275  0.14803283    -0.07100
C2276       C  0.86362011  0.65863500  0.12602460    -0.32500
N2277       N  0.87527419  0.64937072  0.18146585     0.14000
C2278       C  0.86340058  0.65822270  0.23881041    -0.32500
H2279       H  0.86640929  0.65086147  0.28950232     0.15900
C2280       C  0.76398199  0.62746179  0.12895749    -0.31500
N2281       N  0.75067618  0.61188177  0.18611508     0.12700
C2282       C  0.76653496  0.62712090  0.24175796    -0.31500
C2283       C  0.83853797  0.73673288  0.13858712    -0.31800
N2284       N  0.84116212  0.75510003  0.19312572     0.13200
H2285       H  0.85829094  0.74105010  0.10449451     0.15800
C2286       C  0.82408882  0.73800289  0.24398412    -0.31800
H2287       H  0.82328125  0.74665868  0.29493167     0.15800
H2288       H  0.76022347  0.62036155  0.29394278     0.15800
H2289       H  0.86747544  0.65242292  0.07426079     0.15900
H2290       H  0.75529202  0.62107793  0.07765844     0.15800
N2291       N  0.55755543  0.57444730  0.44594858    -0.06400
N2292       N  0.58198122  0.60110764  0.44974761    -0.58500
N2293       N  0.55583922  0.57334138  0.29963628    -0.06100
N2294       N  0.58131764  0.59873707  0.29393826    -0.60600
N2295       N  0.53094446  0.58164677  0.30272205    -0.05700
N2296       N  0.53854594  0.61141798  0.29318265    -0.58500
N2297       N  0.56829651  0.55138338  0.44523162    -0.05300
N2298       N  0.59876448  0.56149302  0.45476277    -0.61000
C2299       C  0.60741342  0.59248205  0.45799134     0.95800
C2300       C  0.56991216  0.62224972  0.28966697     0.95600
N2301       N  0.02579923  0.94600482  0.29198766    -0.06600
N2302       N  0.03037417  0.92372534  0.25504200    -0.59100
N2303       N  0.56137900  0.98180109  0.39463022    -0.04700
N2304       N  0.58876748  0.97836792  0.39437259    -0.60300
N2305       N  0.53823969  0.95430115  0.39041442    -0.06600
N2306       N  0.55048921  0.93214776  0.38563496    -0.59400
N2307       N  0.54797432  0.47996162  0.28635010    -0.04300
N2308       N  0.57003211  0.47499775  0.24878965    -0.60400
Mn2309     Mn  0.54937530  0.52373381  0.35118723     1.18400
C2310       C  0.04237290  0.44643294  0.22705350     0.97900
C2311       C  0.58205519  0.94772495  0.38798754     0.98500
N2312       N  0.94676214  0.56273637  0.32166546    -0.06600
N2313       N  0.93395097  0.58448912  0.32336514    -0.62900
N2314       N  0.94731584  0.02615334  0.47642559    -0.05400
N2315       N  0.92024255  0.02991168  0.01435661    -0.63600
N2316       N  0.46303668  0.55867306  0.46903442    -0.06100
N2317       N  0.46022486  0.57843038  0.00697218    -0.63200
N2318       N  0.92406076  0.53520013  0.31768504    -0.05000
N2319       N  0.89663817  0.53813770  0.31155107    -0.63900
Mn2320     Mn  0.50480290  0.56269871  0.39769575     1.10700
C2321       C  0.90263518  0.56867230  0.31708461     0.99100
C2322       C  0.93883918  0.05574823  0.04858437     0.99200
N2323       N  0.95723457  0.92345755  0.45661744    -0.06100
N2324       N  0.94841167  0.89333103  0.46277229    -0.61500
N2325       N  0.92075163  0.95394912  0.31508327    -0.05500
N2326       N  0.89017205  0.94336025  0.30562816    -0.58200
N2327       N  0.93199337  0.93118761  0.31432047    -0.06800
N2328       N  0.90777987  0.90429188  0.30990290    -0.61100
N2329       N  0.93286505  0.93261388  0.45956963    -0.05800
N2330       N  0.90665395  0.90771725  0.46311399    -0.58300
Mn2331     Mn  0.98514976  0.94423042  0.36433571     1.20200
Mn2332     Mn  0.94069005  0.98275434  0.40781509     1.10100
Cl2333     Cl  0.98284920  0.51117293  0.35184296    -0.86200
C2334       C  0.91696560  0.88334372  0.46499399     0.96100
C2335       C  0.88204635  0.91238391  0.30100499     0.95900
N2336       N  0.57557330  0.55268390  0.18252270    -0.06400
N2337       N  0.59927700  0.55221747  0.21939647    -0.58500
N2338       N  0.54132354  0.58597215  0.07489565    -0.06100
N2339       N  0.54456035  0.61115173  0.04049318    -0.60600
N2340       N  0.53898427  0.59142830  0.13967116    -0.05700
N2341       N  0.54268711  0.62088887  0.15079336    -0.58500
N2342       N  0.58033505  0.54809039  0.11814343    -0.05300
N2343       N  0.60815525  0.54571400  0.10919090    -0.61000
C2344       C  0.62008597  0.54926610  0.17291462     0.95800
C2345       C  0.54742295  0.63328355  0.08804688     0.95600
N2346       N  0.96869909  0.00617831  0.09165279    -0.06600
N2347       N  0.94494843  0.01667145  0.61038974    -0.59100
N2348       N  0.54027374  0.98480627  0.01708082    -0.04700
N2349       N  0.56377893  0.97390560  0.02352485    -0.60300
N2350       N  0.51327970  0.96100129  0.01425661    -0.06600
N2351       N  0.51823920  0.93437753  0.01787160    -0.59400
N2352       N  0.48719578  0.53419073  0.08967414    -0.04300
N2353       N  0.48112726  0.56138220  0.59871700    -0.60400
Mn2354     Mn  0.53607759  0.53463111  0.04794522     1.18400
C2355       C  0.97346923  0.52612284  0.53595345     0.97900
C2356       C  0.54966519  0.94228364  0.02367773     0.98500
N2357       N  0.97595205  0.54391579  0.20328044    -0.06600
N2358       N  0.97081510  0.57008007  0.19175015    -0.62900
N2359       N  0.00079819  0.96864446  0.17629715    -0.05400
N2360       N  0.00777214  0.94358872  0.16159182    -0.63600
N2361       N  0.52225097  0.49901249  0.17104801    -0.06100
N2362       N  0.54667916  0.49121903  0.15375460    -0.63200
N2363       N  0.94941981  0.52005509  0.20189755    -0.05000
N2364       N  0.92585070  0.52964978  0.18673851    -0.63900
Mn2365     Mn  0.52503047  0.54823870  0.20958361     1.10700
C2366       C  0.93937234  0.56115163  0.18220812     0.99100
C2367       C  0.03966520  0.95336045  0.15995763     0.99200
N2368       N  0.94944918  0.91389071  0.11764794    -0.06100
N2369       N  0.94577188  0.88454246  0.10541933    -0.61500
N2370       N  0.90865993  0.95764342  0.13749993    -0.05500
N2371       N  0.88075100  0.96004437  0.14421612    -0.58200
N2372       N  0.91460188  0.95386193  0.07334296    -0.06800
N2373       N  0.89169700  0.95484706  0.03457795    -0.61100
N2374       N  0.94522749  0.91845368  0.18214085    -0.05800
N2375       N  0.94037647  0.89258305  0.21524872    -0.58300
Mn2376     Mn  0.96503905  0.95746161  0.04918079     1.20200
Mn2377     Mn  0.95155462  0.96982427  0.21212205     1.10100
Cl2378     Cl  0.99544613  0.49373708  0.10202185    -0.86200
C2379       C  0.93880315  0.87113724  0.16682824     0.96100
C2380       C  0.87010360  0.95748704  0.07945132     0.95900
C2381       C  0.67629297  0.82404934  0.20790721     0.29700
C2382       C  0.67662153  0.82468379  0.36391320     0.29700
C2383       C  0.67876272  0.85417215  0.24978822    -0.06500
C2384       C  0.64904924  0.79965970  0.24949839    -0.07300
C2385       C  0.70361978  0.81749398  0.24703094    -0.07100
C2386       C  0.68027449  0.85460104  0.32409328    -0.06500
C2387       C  0.64690402  0.80290495  0.32388969    -0.07200
C2388       C  0.70324475  0.81680999  0.32237103    -0.07100
C2389       C  0.67591297  0.88086594  0.34573184    -0.32500
N2390       N  0.66845233  0.89447542  0.29160445     0.14000
C2391       C  0.67176531  0.87982044  0.23335993    -0.32500
H2392       H  0.66592531  0.88562174  0.18364771     0.15900
C2393       C  0.62814857  0.77452264  0.34660684    -0.31500
N2394       N  0.62702549  0.75289267  0.29918624     0.12700
C2395       C  0.64026483  0.76759537  0.24226126    -0.31500
C2396       C  0.73412238  0.82319731  0.34075253    -0.31800
N2397       N  0.75292984  0.82851423  0.28469525     0.13200
H2398       H  0.74268238  0.82795611  0.39224527     0.15800
C2399       C  0.73476829  0.82499712  0.22848849    -0.31800
H2400       H  0.74418076  0.83194389  0.17814637     0.15800
H2401       H  0.64983857  0.75613907  0.20517027     0.15800
H2402       H  0.67281824  0.88673487  0.39803685     0.15900
H2403       H  0.61958190  0.76967227  0.39757023     0.15800
C2404       C  0.67529598  0.82475832  0.45760422     0.29700
C2405       C  0.67387061  0.82446232  0.11372911     0.29700
C2406       C  0.64906890  0.83362686  0.49899934    -0.06500
C2407       C  0.67357513  0.79465396  0.49830451    -0.07300
C2408       C  0.70331734  0.84733395  0.49843559    -0.07100
C2409       C  0.64716512  0.83136017  0.07262235    -0.06500
C2410       C  0.67096007  0.79420910  0.07273757    -0.07200
C2411       C  0.70174769  0.84739059  0.07305259    -0.07100
C2412       C  0.62692495  0.84650482  0.09093071    -0.32500
N2413       N  0.61729153  0.85827678  0.53759180     0.14000
C2414       C  0.62883159  0.84869964  0.48085064    -0.32500
H2415       H  0.62431557  0.85430637  0.42998100     0.15900
C2416       C  0.64747357  0.76649111  0.08443020    -0.31500
N2417       N  0.63919148  0.74951658  0.52994300     0.12700
C2418       C  0.65795441  0.76413601  0.47854041    -0.31500
C2419       C  0.72771651  0.87157419  0.09297345    -0.31800
N2420       N  0.74476094  0.88573366  0.53464846     0.13200
H2421       H  0.73543735  0.87828225  0.14478384     0.15800
C2422       C  0.72865435  0.87186150  0.47841482    -0.31800
H2423       H  0.73510035  0.87918343  0.42661306     0.15800
H2424       H  0.65800924  0.75408868  0.42860331     0.15800
H2425       H  0.62253426  0.85277103  0.14141652     0.15900
H2426       H  0.62870575  0.76378505  0.12020135     0.15800
C2427       C  0.56332648  0.68716081  0.05222891    -0.20600
C2428       C  0.57200313  0.66310143  0.07651207    -0.07100
C2429       C  0.60405874  0.66611312  0.07927089     0.13700
C2430       C  0.62679784  0.69339149  0.05600789    -0.20600
C2431       C  0.61835049  0.71769339  0.03150718    -0.07200
C2432       C  0.58622747  0.71497022  0.03156566     0.13700
C2433       C  0.57588743  0.74163090  0.01345932    -0.24000
H2434       H  0.53856621  0.68421111  0.04997191     0.15000
H2435       H  0.64966068  0.69969168  0.55966192     0.15000
C2436       C  0.61443364  0.64089287  0.10734027    -0.23900
H2437       H  0.55014262  0.73563649  0.02102436     0.05200
H2438       H  0.58075011  0.74739135  0.95946257     0.08500
H2439       H  0.58794709  0.76248153  0.04549959     0.08500
H2440       H  0.60474807  0.63735649  0.65773183     0.08400
H2441       H  0.64048975  0.64779465  0.10788287     0.08400
H2442       H  0.60533491  0.62206638  0.57403760     0.05200
C2443       C  0.82986574  0.91302995  0.02907314    -0.20600
C2444       C  0.83724302  0.94127816  0.06470910    -0.07100
C2445       C  0.81345566  0.95218145  0.08690488     0.13700
C2446       C  0.78222108  0.93387287  0.07392383    -0.20600
C2447       C  0.77504286  0.90563509  0.03838615    -0.07200
C2448       C  0.79901289  0.89517954  0.01503658     0.13700
C2449       C  0.79230536  0.86501764  0.97661559    -0.24000
H2450       H  0.84829181  0.90445986  0.01322913     0.15000
H2451       H  0.76325461  0.94108295  0.09242541     0.15000
C2452       C  0.82093692  0.98298998  0.12284810    -0.23900
H2453       H  0.81397133  0.85994304  0.96553760     0.05200
H2454       H  0.78220098  0.87208220  0.41636331     0.08500
H2455       H  0.77591473  0.84535744  0.00581510     0.08500
H2456       H  0.83593528  0.00163820  0.08923440     0.08400
H2457       H  0.83348261  0.98304688  0.17098317     0.08400
H2458       H  0.79932139  0.98805905  0.13550636     0.05200
C2459       C  0.59914473  0.93036032  0.03489019    -0.20600
C2460       C  0.56603494  0.91935226  0.03291304    -0.07100
C2461       C  0.54951995  0.88662469  0.03701423     0.13700
C2462       C  0.56647392  0.86621430  0.03741703    -0.20600
C2463       C  0.59932655  0.87732708  0.03504961    -0.07200
C2464       C  0.61591132  0.90977749  0.03559573     0.13700
C2465       C  0.65133286  0.92262307  0.03657240    -0.24000
H2466       H  0.61204298  0.95519416  0.03414436     0.15000
H2467       H  0.55581580  0.84356399  0.54970881     0.15000
C2468       C  0.51412595  0.87259767  0.04203152    -0.23900
H2469       H  0.66068628  0.94847961  0.03717975     0.05200
H2470       H  0.66067718  0.91450851  0.99060419     0.08500
H2471       H  0.66004168  0.91463820  0.08266022     0.08500
H2472       H  0.50349596  0.87729370  0.50381510     0.08400
H2473       H  0.50587711  0.88257497  0.08705049     0.08400
H2474       H  0.50730276  0.84887924  0.56053447     0.05200
C2475       C  0.58772711  0.70606610  0.34142699    -0.20600
C2476       C  0.61679189  0.72002917  0.30996099    -0.07100
C2477       C  0.63357486  0.70118940  0.28489988     0.13700
C2478       C  0.61843485  0.66888422  0.28267279    -0.20600
C2479       C  0.58757093  0.65513754  0.30640681    -0.07200
C2480       C  0.57302024  0.67389334  0.34156354     0.13700
C2481       C  0.54195023  0.66092340  0.37908240    -0.24000
H2482       H  0.57544204  0.72060949  0.36192696     0.15000
H2483       H  0.63062690  0.65466694  0.26053615     0.15000
C2484       C  0.66723584  0.71403692  0.26068621    -0.23900
H2485       H  0.53721784  0.67903562  0.41083871     0.05200
H2486       H  0.54232906  0.64222132  0.41373549     0.08500
H2487       H  0.52208089  0.65208479  0.34273286     0.08500
H2488       H  0.67937163  0.73845752  0.27798184     0.08400
H2489       H  0.66798131  0.71230498  0.20425014     0.08400
H2490       H  0.68059974  0.70015461  0.28159697     0.05200
C2491       C  0.84133757  0.85828104  0.30225321    -0.20600
C2492       C  0.84849563  0.89066445  0.29727838    -0.07100
C2493       C  0.82312374  0.90178122  0.28869536     0.13700
C2494       C  0.79239742  0.88050153  0.28101929    -0.20600
C2495       C  0.78547551  0.84853500  0.28629712    -0.07200
C2496       C  0.80997055  0.83720148  0.29786372     0.13700
C2497       C  0.80269123  0.80289284  0.30504288    -0.24000
H2498       H  0.86021426  0.84941010  0.30985705     0.15000
H2499       H  0.77304477  0.88878503  0.27402428     0.15000
C2500       C  0.82725574  0.93586534  0.28992973    -0.23900
H2501       H  0.82430847  0.79780650  0.31577125     0.05200
H2502       H  0.79197180  0.79055114  0.25729561     0.08500
H2503       H  0.78574382  0.79386874  0.34738964     0.08500
H2504       H  0.84287875  0.94795799  0.24786617     0.08400
H2505       H  0.83707823  0.94653456  0.33977383     0.08400
H2506       H  0.80459907  0.93964416  0.28335823     0.05200
C2507       C  0.59382373  0.90393188  0.33976329    -0.20600
C2508       C  0.60496390  0.93528723  0.35927061    -0.07100
C2509       C  0.63709678  0.95401148  0.34805791     0.13700
C2510       C  0.65701254  0.94030427  0.31836482    -0.20600
C2511       C  0.64588499  0.90895441  0.30041362    -0.07200
C2512       C  0.61381957  0.89043686  0.31036040     0.13700
C2513       C  0.60060811  0.85612344  0.29311033    -0.24000
H2514       H  0.56936352  0.88966959  0.34823033     0.15000
H2515       H  0.68192921  0.95351551  0.31253160     0.15000
C2516       C  0.65135926  0.98799839  0.36835917    -0.23900
H2517       H  0.57572460  0.84517835  0.30992423     0.05200
H2518       H  0.61419960  0.84348519  0.31764763     0.08500
H2519       H  0.60093397  0.85270678  0.23772298     0.08500
H2520       H  0.64769187  0.99097668  0.42365971     0.08400
H2521       H  0.64085549  0.00197931  0.33790299     0.08400
H2522       H  0.67715246  0.99763539  0.35884713     0.05200
C2523       C  0.87527589  0.59664274  0.15865893    -0.20600
C2524       C  0.89160359  0.62760624  0.17863168    -0.07100
C2525       C  0.92387729  0.63707993  0.19354561     0.13700
C2526       C  0.93924181  0.61539044  0.18844513    -0.20600
C2527       C  0.92260341  0.58368724  0.17306399    -0.07200
C2528       C  0.89012435  0.57439546  0.15693691     0.13700
C2529       C  0.87068262  0.54118528  0.13921982    -0.24000
H2530       H  0.85047358  0.58974913  0.14652891     0.15000
H2531       H  0.96404603  0.62296202  0.20097635     0.15000
C2532       C  0.94185339  0.67007341  0.21575162    -0.23900
H2533       H  0.84628410  0.53870794  0.12502640     0.05200
H2534       H  0.86889911  0.52601857  0.18352535     0.08500
H2535       H  0.88163241  0.53310621  0.09563462     0.08500
H2536       H  0.93149914  0.67547281  0.26364151     0.08400
H2537       H  0.94056180  0.68631173  0.17563234     0.08400
H2538       H  0.96704950  0.67392798  0.22530080     0.05200
C2539       C  0.92115955  0.81599390  0.19384228    -0.20600
C2540       C  0.91363122  0.84129071  0.17293668    -0.07100
C2541       C  0.88188476  0.83857587  0.16385605     0.13700
C2542       C  0.85821618  0.81017678  0.17697396    -0.20600
C2543       C  0.86554715  0.78469851  0.19789036    -0.07200
C2544       C  0.89746026  0.78728540  0.20460246     0.13700
C2545       C  0.90745231  0.75998758  0.21849658    -0.24000
H2546       H  0.94565464  0.81846188  0.20014159     0.15000
H2547       H  0.83382964  0.80720590  0.16760269     0.15000
C2548       C  0.87278915  0.86527912  0.13970746    -0.23900
H2549       H  0.92253276  0.75708093  0.17600593     0.05200
H2550       H  0.88735688  0.73781917  0.22296300     0.08500
H2551       H  0.92128546  0.76425070  0.26631224     0.08500
H2552       H  0.88379589  0.87335792  0.08981559     0.08400
H2553       H  0.88089230  0.88504008  0.17621141     0.08400
H2554       H  0.84688078  0.85856809  0.13411203     0.05200
C2555       C  0.67338035  0.55140452  0.14145462    -0.20600
C2556       C  0.65389990  0.56100906  0.18544227    -0.07100
C2557       C  0.66738509  0.58460763  0.23494600     0.13700
C2558       C  0.69962899  0.59856323  0.23742228    -0.20600
C2559       C  0.71903217  0.59088172  0.19039957    -0.07200
C2560       C  0.70609747  0.56620080  0.14336417     0.13700
C2561       C  0.72603940  0.55517472  0.09513214    -0.24000
H2562       H  0.66301228  0.53301431  0.10410874     0.15000
H2563       H  0.70960433  0.61800165  0.27238788     0.15000
C2564       C  0.64865329  0.59851327  0.27979558    -0.23900
H2565       H  0.72046508  0.52981216  0.10147118     0.05200
H2566       H  0.75159774  0.56682444  0.10472539     0.08500
H2567       H  0.72093532  0.55949986  0.04183913     0.08500
H2568       H  0.63339949  0.58080162  0.31490494     0.08400
H2569       H  0.63472221  0.60778222  0.24637257     0.08400
H2570       H  0.66368291  0.61839318  0.31136204     0.05200
C2571       C  0.85788177  0.59429963  0.45131845    -0.20600
C2572       C  0.82762550  0.58302988  0.42308913    -0.07100
C2573       C  0.82182733  0.56312794  0.36578710     0.13700
C2574       C  0.84741452  0.56118649  0.32909927    -0.20600
C2575       C  0.87842014  0.57744882  0.35090978    -0.07200
C2576       C  0.88375462  0.59383644  0.41376709     0.13700
C2577       C  0.91611042  0.61154582  0.44159175    -0.24000
H2578       H  0.86195982  0.60812179  0.49759502     0.15000
H2579       H  0.84323167  0.54675251  0.28334446     0.15000
C2580       C  0.78873930  0.54620213  0.34100906    -0.23900
H2581       H  0.91519613  0.62391791  0.49026367     0.05200
H2582       H  0.92979055  0.62925956  0.40451956     0.08500
H2583       H  0.92836495  0.59528989  0.45220009     0.08500
H2584       H  0.77688699  0.56275036  0.32815738     0.08400
H2585       H  0.78814517  0.53462476  0.92969044     0.08400
H2586       H  0.78845546  0.53177521  0.29485077     0.05200
C2587       C  0.86760330  0.83702616  0.46541780    -0.20600
C2588       C  0.89859192  0.85123369  0.44245618    -0.07100
C2589       C  0.91242860  0.83363393  0.40119559     0.13700
C2590       C  0.89807447  0.80016223  0.89040758    -0.20600
C2591       C  0.86744474  0.78684637  0.42283448    -0.07200
C2592       C  0.85157478  0.80498882  0.45548328     0.13700
C2593       C  0.81784651  0.79169783  0.47906318    -0.24000
H2594       H  0.85608036  0.85069694  0.49265867     0.15000
H2595       H  0.90998589  0.78662422  0.86395491     0.15000
C2596       C  0.94528228  0.84655421  0.86592061    -0.23900
H2597       H  0.80469053  0.80620936  0.46026126     0.05200
H2598       H  0.81691591  0.79190314  0.53559225     0.08500
H2599       H  0.80563076  0.76774461  0.45905742     0.08500
H2600       H  0.96456016  0.85253334  0.90382166     0.08400
H2601       H  0.94605966  0.86754601  0.83781100     0.08400
H2602       H  0.94997927  0.83033033  0.82842687     0.05200
C2603       C  0.64839463  0.64548872  0.44434472    -0.20600
C2604       C  0.64095300  0.61321752  0.45187857    -0.07100
C2605       C  0.66596495  0.60115818  0.45157178     0.13700
C2606       C  0.69408966  0.61985067  0.94682750    -0.20600
C2607       C  0.70418595  0.65348539  0.44005105    -0.07200
C2608       C  0.67992155  0.66578827  0.43919806     0.13700
C2609       C  0.68762127  0.70027083  0.43441657    -0.24000
H2610       H  0.62963195  0.65489499  0.44315622     0.15000
H2611       H  0.71273107  0.61027122  0.94890891     0.15000
C2612       C  0.65653410  0.56586221  0.95787513    -0.23900
H2613       H  0.66593147  0.70595968  0.43009268     0.05200
H2614       H  0.70259605  0.70934840  0.38911441     0.08500
H2615       H  0.70070385  0.71207059  0.48055800     0.08500
H2616       H  0.64254268  0.55296016  0.91383369     0.08400
H2617       H  0.64418719  0.55697390  0.00605785     0.08400
H2618       H  0.67868066  0.56073684  0.95794790     0.05200
C2619       C  0.81426859  0.67886955  0.51258170     0.29700
C2620       C  0.81433435  0.67750997  0.85633169     0.29700
C2621       C  0.81386844  0.64996660  0.46967566    -0.06500
C2622       C  0.78591217  0.68342523  0.47367532    -0.07300
C2623       C  0.83995961  0.70541759  0.47227830    -0.07100
C2624       C  0.81287977  0.64847397  0.89685349    -0.06500
C2625       C  0.78554960  0.68247937  0.89685698    -0.07200
C2626       C  0.84265822  0.70147624  0.89744482    -0.07100
C2627       C  0.81406584  0.62075966  0.87594929    -0.32500
N2628       N  0.81853540  0.60541292  0.93072808     0.14000
C2629       C  0.81067566  0.62031317  0.48687582    -0.32500
H2630       H  0.81203542  0.61235250  0.53789858     0.15900
C2631       C  0.75401138  0.67406524  0.87921296    -0.31500
N2632       N  0.73673565  0.67280866  0.43809649     0.12700
C2633       C  0.75529232  0.67683812  0.49374370    -0.31500
C2634       C  0.85959218  0.73111241  0.87657800    -0.31800
N2635       N  0.85701490  0.75352168  0.42703340     0.15200
H2636       H  0.86912000  0.73747915  0.82655352     0.15800
C2637       C  0.84532060  0.73688610  0.48261457    -0.31800
H2638       H  0.83470364  0.74614987  0.52206752     0.15800
H2639       H  0.74640974  0.67058539  0.54481166     0.15800
H2640       H  0.81698569  0.61444766  0.82364654     0.15900
H2641       H  0.74470679  0.66704568  0.82860780     0.15800
C2642       C  0.81667762  0.67699905  0.76258346     0.29700
C2643       C  0.81686559  0.67704812  0.60620718     0.29700
C2644       C  0.84416649  0.66961340  0.72057832    -0.06500
C2645       C  0.78967274  0.65331102  0.72129795    -0.07300
C2646       C  0.81625646  0.70649717  0.72270809    -0.07100
C2647       C  0.84386138  0.66941549  0.64535539    -0.06500
C2648       C  0.78892847  0.65368523  0.64703859    -0.07200
C2649       C  0.82003905  0.70694453  0.64845865    -0.07100
C2650       C  0.86283237  0.65287140  0.62446504    -0.32500
N2651       N  0.87469576  0.64289607  0.67918534     0.14000
C2652       C  0.86346924  0.65265818  0.73687702    -0.32500
H2653       H  0.86743259  0.64612882  0.78767177     0.15900
C2654       C  0.76453818  0.62735017  0.62800051    -0.31500
N2655       N  0.75165190  0.61119106  0.68477859     0.12700
C2656       C  0.76756974  0.62621884  0.74049309    -0.31500
C2657       C  0.84252703  0.73551531  0.63825031    -0.31800
N2658       N  0.84496983  0.75418445  0.69218267     0.13200
H2659       H  0.86155929  0.74006027  0.60210458     0.15800
C2660       C  0.82801689  0.73726841  0.74353583    -0.31800
H2661       H  0.82684299  0.74632975  0.79396204     0.15800
H2662       H  0.76204530  0.61860370  0.79244789     0.15800
H2663       H  0.86626928  0.64700526  0.57235581     0.15900
H2664       H  0.75606644  0.62090537  0.57658117     0.15800
N2665       N  0.55327167  0.57517450  0.94144341    -0.06400
N2666       N  0.57836717  0.60160269  0.94325073    -0.58500
N2667       N  0.55606858  0.57259423  0.80082778    -0.06100
N2668       N  0.58151206  0.59777193  0.79164705    -0.60600
N2669       N  0.53125807  0.58097749  0.80528811    -0.05700
N2670       N  0.53883007  0.61041286  0.79167513    -0.58500
N2671       N  0.56375128  0.55189178  0.94594046    -0.05300
N2672       N  0.59413958  0.56192212  0.95789726    -0.61000
C2673       C  0.60360478  0.59292654  0.95549849     0.95800
C2674       C  0.57010231  0.62124666  0.78617526     0.95600
N2675       N  0.02656188  0.94458527  0.79213657    -0.06600
N2676       N  0.03123662  0.92309892  0.75275123    -0.59100
N2677       N  0.56155299  0.98303639  0.89429355    -0.04700
N2678       N  0.58902117  0.97967173  0.89288250    -0.60300
N2679       N  0.53846173  0.95545072  0.89048717    -0.06600
N2680       N  0.55078931  0.93336236  0.88513800    -0.59400
N2681       N  0.54782624  0.48030748  0.78644876    -0.04300
N2682       N  0.56968537  0.47478470  0.74929170    -0.60400
Mn2683     Mn  0.54957617  0.52400839  0.85133857     1.18400
C2684       C  0.05217763  0.44214053  0.72002627     0.97900
C2685       C  0.58233849  0.94896511  0.88696899     0.98500
N2686       N  0.95430393  0.55839011  0.81270264    -0.06600
N2687       N  0.94122132  0.57990503  0.81461717    -0.62900
N2688       N  0.94169251  0.02380006  0.97679317    -0.05400
N2689       N  0.92533290  0.03298929  0.51069444    -0.63600
N2690       N  0.46692414  0.55673485  0.97208734    -0.06100
N2691       N  0.45803317  0.58074719  0.50581795    -0.63200
N2692       N  0.93159823  0.53066515  0.81529473    -0.05000
N2693       N  0.90380739  0.53327963  0.81490229    -0.63900
Mn2694     Mn  0.50312142  0.56764063  0.89506534     1.10700
C2695       C  0.90981625  0.56399266  0.81625744     0.99100
C2696       C  0.94316649  0.05856973  0.54631531     0.99200
N2697       N  0.95714442  0.92092206  0.95926462    -0.06100
N2698       N  0.94858448  0.89089726  0.96667140    -0.61500
N2699       N  0.92191160  0.95212596  0.81478012    -0.05500
N2700       N  0.89151264  0.94197702  0.80340788    -0.58200
N2701       N  0.93264140  0.92897666  0.81552725    -0.06800
N2702       N  0.90808168  0.90236437  0.81189169    -0.61100
N2703       N  0.93254521  0.92987265  0.96138743    -0.05800
N2704       N  0.90655026  0.90481355  0.96465584    -0.58300
Mn2705     Mn  0.98517319  0.93952317  0.86557153     1.20200
Mn2706     Mn  0.93886429  0.97981973  0.91038506     1.10100
Cl2707     Cl  0.99591505  0.51214451  0.85194018    -0.86200
C2708       C  0.91717039  0.88068831  0.96747232     0.96100
C2709       C  0.88280909  0.91094916  0.80120651     0.95900
N2710       N  0.57674444  0.55346863  0.68068283    -0.06400
N2711       N  0.60035024  0.55263946  0.71743067    -0.58500
N2712       N  0.54261075  0.58722179  0.57359706    -0.06100
N2713       N  0.54463985  0.61198453  0.53874986    -0.60600
N2714       N  0.54001985  0.59261767  0.63831964    -0.05700
N2715       N  0.54227410  0.62171785  0.64905647    -0.58500
N2716       N  0.58147500  0.54895141  0.61623009    -0.05300
N2717       N  0.60921504  0.54636225  0.60711446    -0.61000
C2718       C  0.62108742  0.54958093  0.67086864     0.95800
C2719       C  0.54655442  0.63397115  0.58616917     0.95600
N2720       N  0.96913307  0.00804059  0.59544810    -0.06600
N2721       N  0.94430606  0.01405704  0.10872124    -0.59100
N2722       N  0.53964610  0.98558939  0.51662846    -0.04700
N2723       N  0.56340367  0.97513610  0.52396972    -0.60300
N2724       N  0.51286821  0.96152810  0.51380624    -0.06600
N2725       N  0.51824495  0.93512187  0.51815374    -0.59400
N2726       N  0.48841531  0.53650832  0.58419224    -0.04300
N2727       N  0.47985840  0.55903328  0.10391677    -0.60400
Mn2728     Mn  0.53740249  0.53607610  0.54560437     1.18400
C2729       C  0.96254919  0.54066286  0.06567934     0.97900
C2730       C  0.54971904  0.94349349  0.52438834     0.98500
N2731       N  0.98361443  0.53982648  0.68752547    -0.06600
N2732       N  0.97737878  0.56577702  0.67740486    -0.62900
N2733       N  0.99959798  0.96895686  0.67869916    -0.05400
N2734       N  0.00656875  0.94393087  0.66349607    -0.63600
N2735       N  0.52297716  0.50003732  0.67044832    -0.06100
N2736       N  0.54722119  0.49181518  0.65382790    -0.63200
N2737       N  0.95708432  0.51600272  0.69128652    -0.05000
N2738       N  0.93276143  0.52522499  0.68115309    -0.63900
Mn2739     Mn  0.52632255  0.54955885  0.70829488     1.10700
C2740       C  0.94532381  0.55668380  0.67431124     0.99100
C2741       C  0.03848921  0.95384584  0.65994866     0.99200
N2742       N  0.94827655  0.91546948  0.61389015    -0.06100
N2743       N  0.94530570  0.88632497  0.60101655    -0.61500
N2744       N  0.90783613  0.96022733  0.63338372    -0.05500
N2745       N  0.88013498  0.96325055  0.63893339    -0.58200
N2746       N  0.91458762  0.95740387  0.56930394    -0.06800
N2747       N  0.89257633  0.95979475  0.52962382    -0.61100
N2748       N  0.94333833  0.91950349  0.67826104    -0.05800
N2749       N  0.93878181  0.89353203  0.71065136    -0.58300
Mn2750     Mn  0.96488928  0.95970613  0.54775445     1.20200
Mn2751     Mn  0.94994878  0.97058845  0.71040117     1.10100
Cl2752     Cl  0.00308794  0.49102471  0.61597920    -0.86200
C2753       C  0.93822357  0.87256038  0.66200335     0.96100
C2754       C  0.87042727  0.96202939  0.57354091     0.95900
C2755       C  0.67716635  0.82480239  0.70819107     0.29700
C2756       C  0.67643752  0.82414271  0.86392507     0.29700
C2757       C  0.67906380  0.85455672  0.75096938    -0.06500
C2758       C  0.64988242  0.79968231  0.74848145    -0.07300
C2759       C  0.70445504  0.81835701  0.74764381    -0.07100
C2760       C  0.67965581  0.85420621  0.82523400    -0.06500
C2761       C  0.64725566  0.80226683  0.82289395    -0.07200
C2762       C  0.70349235  0.81701274  0.82282203    -0.07100
C2763       C  0.67486637  0.88016576  0.84760056    -0.32500
N2764       N  0.66867407  0.89470551  0.79357796     0.14000
C2765       C  0.67309594  0.88087668  0.73491197    -0.32500
H2766       H  0.66825288  0.88743828  0.68497566     0.15900
C2767       C  0.62902807  0.77353034  0.84464942    -0.31500
N2768       N  0.62807510  0.75235596  0.79623488     0.12700
C2769       C  0.64145412  0.76763606  0.73993163    -0.31500
C2770       C  0.73402727  0.82292253  0.84253102    -0.31800
N2771       N  0.75333194  0.82884197  0.78733569     0.13200
H2772       H  0.74196248  0.82678403  0.89450880     0.15800
C2773       C  0.73577180  0.82607572  0.73039260    -0.31800
H2774       H  0.74570674  0.83352746  0.68067750     0.15800
H2775       H  0.65066268  0.75645976  0.70134017     0.15800
H2776       H  0.67114932  0.88555882  0.89990593     0.15900
H2777       H  0.62086409  0.76818249  0.89564118     0.15800
C2778       C  0.67480491  0.82365589  0.95725870     0.29700
C2779       C  0.67497529  0.82573396  0.61423179     0.29700
C2780       C  0.64735489  0.83061940  0.99758062    -0.06500
C2781       C  0.67440410  0.79391163  0.99781246    -0.07300
C2782       C  0.70191848  0.84734561  0.99871460    -0.07100
C2783       C  0.64917493  0.83436986  0.57402296    -0.06500
C2784       C  0.66983918  0.79507987  0.57310355    -0.07200
C2785       C  0.70361723  0.84745627  0.57288880    -0.07100
C2786       C  0.62858595  0.84899928  0.59359802    -0.32500
N2787       N  0.61562512  0.85549475  0.03456974     0.14000
C2788       C  0.62711426  0.84553791  0.97831743    -0.32500
H2789       H  0.62278561  0.85090455  0.92686052     0.15900
C2790       C  0.64467068  0.76847967  0.58388036    -0.31500
N2791       N  0.64257542  0.74748410  0.03057980     0.12700
C2792       C  0.65978865  0.76312476  0.97806188    -0.31500
C2793       C  0.72963799  0.87198358  0.59174357    -0.31800
N2794       N  0.74343499  0.88526754  0.03653250     0.13200
H2795       H  0.73736045  0.87936261  0.64326824     0.15800
C2796       C  0.72783408  0.87156903  0.97955084    -0.31800
H2797       H  0.73552402  0.87823872  0.92795457     0.15800
H2798       H  0.65920505  0.75351045  0.92750496     0.15800
H2799       H  0.62343383  0.85427908  0.64495347     0.15900
H2800       H  0.62642526  0.76622923  0.62088533     0.15800
C2801       C  0.56086138  0.68787182  0.55129945    -0.20600
C2802       C  0.57035590  0.66418236  0.57483454    -0.07100
C2803       C  0.60262863  0.66807643  0.57787864     0.13700
C2804       C  0.62475692  0.69571842  0.55511059    -0.20600
C2805       C  0.61549820  0.71957130  0.53133428    -0.07200
C2806       C  0.58323521  0.71614604  0.53146196     0.13700
C2807       C  0.57232735  0.74254406  0.51428607    -0.24000
H2808       H  0.53595357  0.68429789  0.54915097     0.15000
H2809       H  0.65155325  0.69670620  0.06062917     0.15000
C2810       C  0.61392322  0.64343411  0.60567387    -0.23900
H2811       H  0.54638246  0.73572603  0.51969337     0.05200
H2812       H  0.57825595  0.74959416  0.46114193     0.08500
H2813       H  0.58334602  0.76284315  0.54860818     0.08500
H2814       H  0.60564685  0.63553989  0.15996584     0.08400
H2815       H  0.64003930  0.65124888  0.60734992     0.08400
H2816       H  0.60481615  0.61932915  0.07648910     0.05200
C2817       C  0.83088343  0.91958835  0.51474773    -0.20600
C2818       C  0.83762499  0.94615397  0.55634225    -0.07100
C2819       C  0.81317179  0.95446957  0.58508121     0.13700
C2820       C  0.78215880  0.93496903  0.57370495    -0.20600
C2821       C  0.77572818  0.90775286  0.53455927    -0.07200
C2822       C  0.80025745  0.90008624  0.50408339     0.13700
C2823       C  0.79461076  0.87065330  0.46332702    -0.24000
H2824       H  0.84967995  0.91293718  0.49323852     0.15000
H2825       H  0.76284710  0.94022097  0.59702510     0.15000
C2826       C  0.81964568  0.98370688  0.62677056    -0.23900
H2827       H  0.81684279  0.86759936  0.44729128     0.05200
H2828       H  0.78226573  0.86719391  0.92696983     0.08500
H2829       H  0.78063541  0.85007869  0.49338133     0.08500
H2830       H  0.83313547  0.00392091  0.59524192     0.08400
H2831       H  0.83329167  0.98291905  0.67274556     0.08400
H2832       H  0.79756683  0.98689571  0.64381803     0.05200
C2833       C  0.59971089  0.93244998  0.53349656    -0.20600
C2834       C  0.56657757  0.92108334  0.53493831    -0.07100
C2835       C  0.55052307  0.88848230  0.54309154     0.13700
C2836       C  0.56785445  0.86842357  0.54464076    -0.20600
C2837       C  0.60062225  0.87978227  0.53851993    -0.07200
C2838       C  0.61681542  0.91219796  0.53436482     0.13700
C2839       C  0.65218210  0.92534695  0.53019298    -0.24000
H2840       H  0.61233340  0.95723620  0.52881266     0.15000
H2841       H  0.55409175  0.84128889  0.03931560     0.15000
C2842       C  0.51525639  0.87426719  0.55102481    -0.23900
H2843       H  0.66123321  0.95116787  0.52798144     0.05200
H2844       H  0.66020623  0.91636810  0.48361856     0.08500
H2845       H  0.66243983  0.91848430  0.57559744     0.08500
H2846       H  0.50326470  0.87704048  0.99485642     0.08400
H2847       H  0.50758780  0.88528170  0.59517532     0.08400
H2848       H  0.50574400  0.84696771  0.04836444     0.05200
C2849       C  0.58798562  0.70549431  0.83623601    -0.20600
C2850       C  0.61724445  0.71933984  0.80545478    -0.07100
C2851       C  0.63392189  0.70036053  0.78080024     0.13700
C2852       C  0.61872245  0.66802313  0.77908257    -0.20600
C2853       C  0.58775035  0.65433396  0.80232457    -0.07200
C2854       C  0.57318304  0.67331568  0.83680715     0.13700
C2855       C  0.54217779  0.66064637  0.87475156    -0.24000
H2856       H  0.57576938  0.72016509  0.85646514     0.15000
H2857       H  0.63097597  0.65370741  0.75769366     0.15000
C2858       C  0.66756459  0.71312329  0.75656004    -0.23900
H2859       H  0.53755852  0.67897729  0.90601808     0.05200
H2860       H  0.54260859  0.64221647  0.91014353     0.08500
H2861       H  0.52222187  0.65156006  0.83867192     0.08500
H2862       H  0.67976863  0.73753482  0.77380157     0.08400
H2863       H  0.66826661  0.71140039  0.70012852     0.08400
H2864       H  0.68088628  0.69919705  0.77745617     0.05200
C2865       C  0.84162702  0.85737958  0.80305066    -0.20600
C2866       C  0.84911833  0.88984540  0.79988673    -0.07100
C2867       C  0.82400763  0.90157432  0.79477490     0.13700
C2868       C  0.79301518  0.88071824  0.78913853    -0.20600
C2869       C  0.78585673  0.84861590  0.79085608    -0.07200
C2870       C  0.81015671  0.83669882  0.79885007     0.13700
C2871       C  0.80258061  0.80218877  0.80189269    -0.24000
H2872       H  0.86037360  0.84810594  0.80798753     0.15000
H2873       H  0.77378115  0.88936898  0.78468781     0.15000
C2874       C  0.82880628  0.93584362  0.79633980    -0.23900
H2875       H  0.82409826  0.79660425  0.81047639     0.05200
H2876       H  0.79157576  0.79103202  0.75333796     0.08500
H2877       H  0.78575021  0.79231026  0.84400170     0.08500
H2878       H  0.84338954  0.94752937  0.75236553     0.08400
H2879       H  0.84007420  0.94662732  0.84501768     0.08400
H2880       H  0.80622607  0.94004732  0.79295832     0.05200
C2881       C  0.59370930  0.90673717  0.82863671    -0.20600
C2882       C  0.60525758  0.93646929  0.85831307    -0.07100
C2883       C  0.63812966  0.95374320  0.85799425     0.13700
C2884       C  0.65836548  0.94027072  0.82872254    -0.20600
C2885       C  0.64686086  0.91017482  0.80174508    -0.07200
C2886       C  0.61404921  0.89295781  0.80187019     0.13700
C2887       C  0.59943441  0.85929083  0.77964851    -0.24000
H2888       H  0.56863263  0.89345484  0.82856849     0.15000
H2889       H  0.68363535  0.95236303  0.83067728     0.15000
C2890       C  0.65262344  0.98577902  0.88990446    -0.23900
H2891       H  0.58550482  0.84541769  0.82238682     0.05200
H2892       H  0.61660285  0.84843670  0.76443554     0.08500
H2893       H  0.58336668  0.85737200  0.73611010     0.08500
H2894       H  0.64511913  0.98554167  0.94387869     0.08400
H2895       H  0.64574263  0.00286188  0.86087680     0.08400
H2896       H  0.67876665  0.99404141  0.88932427     0.05200
C2897       C  0.87673564  0.58954914  0.66384138    -0.20600
C2898       C  0.89239507  0.62161021  0.67569189    -0.07100
C2899       C  0.92556251  0.63234781  0.68192233     0.13700
C2900       C  0.94210745  0.61117041  0.67740700    -0.20600
C2901       C  0.92649230  0.57867304  0.66874378    -0.07200
C2902       C  0.89300443  0.56809970  0.66114389     0.13700
C2903       C  0.87381779  0.53412457  0.65140629    -0.24000
H2904       H  0.85136443  0.58114527  0.65818711     0.15000
H2905       H  0.96745197  0.62006223  0.68356128     0.15000
C2906       C  0.94346285  0.66642557  0.69386420    -0.23900
H2907       H  0.84861551  0.53020799  0.64183501     0.05200
H2908       H  0.87483125  0.52093979  0.69744009     0.08500
H2909       H  0.88315267  0.52476567  0.60736226     0.08500
H2910       H  0.93534600  0.67418993  0.74204774     0.08400
H2911       H  0.93929972  0.67994369  0.65102511     0.08400
H2912       H  0.96919602  0.67147287  0.69778861     0.05200
C2913       C  0.92321488  0.81748935  0.68738252    -0.20600
C2914       C  0.91416634  0.84203882  0.66765135    -0.07100
C2915       C  0.88197823  0.83807403  0.66109154     0.13700
C2916       C  0.85939183  0.80910328  0.67509849    -0.20600
C2917       C  0.86829229  0.78442888  0.69530615    -0.07200
C2918       C  0.90058160  0.78835236  0.69994430     0.13700
C2919       C  0.91192355  0.76198074  0.71435145    -0.24000
H2920       H  0.94802826  0.82098342  0.69227288     0.15000
H2921       H  0.83466064  0.80513423  0.66748420     0.15000
C2922       C  0.87137029  0.86415136  0.63913604    -0.23900
H2923       H  0.92637892  0.75889898  0.67080349     0.05200
H2924       H  0.89247146  0.73952207  0.72182430     0.08500
H2925       H  0.92673476  0.76747548  0.76081644     0.08500
H2926       H  0.88208173  0.87324804  0.58955997     0.08400
H2927       H  0.87884689  0.88354727  0.67661443     0.08400
H2928       H  0.84535175  0.85641343  0.63414622     0.05200
C2929       C  0.67426262  0.55121340  0.63910737    -0.20600
C2930       C  0.65489719  0.56072178  0.68368187    -0.07100
C2931       C  0.66854883  0.58370743  0.73431170     0.13700
C2932       C  0.70082800  0.59716796  0.73733274    -0.20600
C2933       C  0.72011642  0.58993029  0.68927524    -0.07200
C2934       C  0.70702321  0.56577671  0.64114180     0.13700
C2935       C  0.72687312  0.55513082  0.59189157    -0.24000
H2936       H  0.66377907  0.53315040  0.60115796     0.15000
H2937       H  0.71092885  0.61609864  0.77342687     0.15000
C2938       C  0.65002606  0.59755960  0.77998287    -0.23900
H2939       H  0.72112710  0.52966811  0.59672786     0.05200
H2940       H  0.75244109  0.56654812  0.60175999     0.08500
H2941       H  0.72190757  0.56013982  0.53901455     0.08500
H2942       H  0.63452716  0.57966779  0.81438047     0.08400
H2943       H  0.63627769  0.60737512  0.74736844     0.08400
H2944       H  0.66523441  0.61706616  0.81217936     0.05200
C2945       C  0.87247253  0.60942086  0.92752881    -0.20600
C2946       C  0.84068361  0.59033447  0.92209766    -0.07100
C2947       C  0.83205518  0.56254110  0.88417590     0.13700
C2948       C  0.85526698  0.55517623  0.84889575    -0.20600
C2949       C  0.88697746  0.57531205  0.85025460    -0.07200
C2950       C  0.89574649  0.60294106  0.89030045     0.13700
C2951       C  0.92886849  0.62638313  0.89284648    -0.24000
H2952       H  0.87844050  0.63144019  0.95489069     0.15000
H2953       H  0.84841099  0.53382787  0.81877194     0.15000
C2954       C  0.79800530  0.54184340  0.87815844    -0.23900
H2955       H  0.93043858  0.64717766  0.92442308     0.05200
H2956       H  0.93691547  0.63456817  0.84070207     0.08500
H2957       H  0.94494504  0.61590984  0.91573776     0.08500
H2958       H  0.78427215  0.55449483  0.85350783     0.08400
H2959       H  0.77498759  0.53058201  0.38154145     0.08400
H2960       H  0.79518813  0.52054848  0.84724803     0.05200
C2961       C  0.86847047  0.83438201  0.96497600    -0.20600
C2962       C  0.89942506  0.84891882  0.94278549    -0.07100
C2963       C  0.91360324  0.83202561  0.90030194     0.13700
C2964       C  0.89660923  0.80179912  0.39262467    -0.20600
C2965       C  0.86883472  0.78482570  0.92009376    -0.07200
C2966       C  0.85256010  0.80260546  0.95269129     0.13700
C2967       C  0.81854106  0.78917169  0.97424536    -0.24000
H2968       H  0.85694455  0.84759164  0.99373990     0.15000
H2969       H  0.90828351  0.78794621  0.36655953     0.15000
C2970       C  0.94412829  0.84735404  0.36656970    -0.23900
H2971       H  0.80567930  0.80388798  0.95522488     0.05200
H2972       H  0.81687515  0.78887852  0.03071872     0.08500
H2973       H  0.80651076  0.76543839  0.95285882     0.08500
H2974       H  0.96335384  0.85324381  0.40450028     0.08400
H2975       H  0.94531220  0.86824498  0.33766050     0.08400
H2976       H  0.94852550  0.83067413  0.32987892     0.05200
C2977       C  0.64675108  0.64536065  0.94056589    -0.20600
C2978       C  0.63794216  0.61300030  0.94978395    -0.07100
C2979       C  0.66250099  0.60021113  0.95213032     0.13700
C2980       C  0.69699330  0.62157858  0.44582974    -0.20600
C2981       C  0.70257792  0.65181983  0.93861904    -0.07200
C2982       C  0.67881173  0.66487470  0.93594872     0.13700
C2983       C  0.68754211  0.69942833  0.92997339    -0.24000
H2984       H  0.62858124  0.65549577  0.93777204     0.15000
H2985       H  0.71622736  0.61276462  0.44603069     0.15000
C2986       C  0.66103543  0.56693737  0.45533087    -0.23900
H2987       H  0.66628438  0.70573444  0.92431340     0.05200
H2988       H  0.70296040  0.70789292  0.88501548     0.08500
H2989       H  0.70048143  0.71123517  0.97626392     0.08500
H2990       H  0.64738092  0.55430502  0.41064070     0.08400
H2991       H  0.64877454  0.55718953  0.50321121     0.08400
H2992       H  0.68356899  0.56256447  0.45447967     0.05200
loop_ 
_geom_bond_atom_site_label_1 
_geom_bond_atom_site_label_2 
_geom_bond_distance 
_geom_bond_site_symmetry_2 
_ccdc_geom_bond_type 
C1            C3   1.555   1_554  S
C1            C5   1.578   1_554  S
C1            C4   1.576   1_554  S
C1           C25   1.850       .  S
C2            C6   1.550       .  S
C2            C8   1.578       .  S
C2            C7   1.594       .  S
C2           C24   1.841       .  S
C3           C11   1.362   1_556  A
C3          C380   1.453       .  A
C4           C15   1.370   1_556  A
C4          C381   1.485       .  A
C5           C19   1.389   1_556  A
C5          C382   1.474       .  A
C6            C9   1.354       .  A
C6          C377   1.455       .  A
C7           C13   1.382       .  A
C7          C378   1.485       .  A
C8           C16   1.367       .  A
C8          C379   1.472       .  A
C9           N10   1.354       .  A
C9           H22   1.083       .  S
N10         C385   1.352       .  A
N10         C328   1.407       .  S
C11         N384   1.353   1_554  A
C11          H12   1.082       .  S
C13         N388   1.357       .  A
C13          H23   1.082       .  S
N14          C15   1.351   1_556  A
N14         C387   1.356       .  A
N14         C737   1.427       .  S
C15          H21   1.082       .  S
C16         N391   1.341       .  A
C16          H18   1.071       .  S
N17          C19   1.339   1_556  A
N17         C390   1.341       .  A
N17         C721   1.436       .  S
C19          H20   1.064       .  S
C24          C26   1.593       .  S
C24          C28   1.586       .  S
C24          C27   1.555       .  S
C25          C29   1.590       .  S
C25          C31   1.556       .  S
C25          C30   1.564       .  S
C26          C34   1.382       .  A
C26          C29   1.478       .  A
C27          C38   1.357       .  A
C27          C30   1.457       .  A
C28          C42   1.380       .  A
C28          C31   1.476       .  A
C29          C32   1.383       .  A
C30          C36   1.369       .  A
C31          C39   1.365       .  A
C32          N33   1.358       .  A
C32          H45   1.081       .  S
N33          C34   1.358       .  A
N33         C280   1.441       .  S
C34          H35   1.082       .  S
C36          N37   1.359       .  A
C36          H46   1.082       .  S
N37          C38   1.359       .  A
N37         C315   1.432       .  S
C38          H44   1.082       .  S
C39          N40   1.328       .  A
C39          H41   1.077       .  S
N40          C42   1.342       .  A
N40         C299   1.420       .  S
C42          H43   1.075       .  S
N47          N48   1.333       .  A
N47          N53   1.321       .  A
N47         Mn76   2.352       .  S
N48          C55   1.358       .  A
N49          N51   1.313       .  A
N49          N50   1.325       .  A
N49         Mn65   2.373       .  S
N50          C56   1.354       .  A
N51          N52   1.305       .  A
N51         Mn76   2.125       .  S
N52          C56   1.333       .  A
N53          N54   1.315       .  A
N53         Mn65   2.200       .  S
N54          C55   1.337       .  A
C55         C360   1.497       .  S
C56         C235   1.472       .  S
N57          N58   1.319       .  A
N57        N2307   1.330       .  A
N57         Mn87   2.306       .  S
N58         C814   1.349       .  A
N59          N60   1.327       .  A
N59          N61   1.329       .  A
N59        Mn813   2.160       .  S
N60          C67   1.348       .  A
N61          N62   1.331       .  A
N61       Mn1583   2.224   1_455  S
N62          C67   1.352       .  A
N63          N64   1.319       .  A
N63        N2301   1.327       .  A
N63         Mn65   2.334   1_565  S
N64        C1562   1.355       .  A
Mn65        N807   2.267   1_545  S
Mn65      Cl1585   2.445   1_455  S
C66         N806   1.342       .  A
C66        N1560   1.356       .  A
C66         C871   1.477       .  S
C67         C264   1.500       .  S
N68          N69   1.320       .  A
N68          N74   1.326       .  A
N68       Mn1572   2.374       .  S
N69          C77   1.352       .  A
N70        N2316   1.330       .  A
N70         N445   1.319       .  A
N70         Mn88   2.340       .  S
N71          C78   1.349       .  A
N71         N444   1.321   1_554  A
N72        N2314   1.330       .  A
N72         N447   1.319       .  A
N72         Mn76   2.123   1_655  S
N73        C2322   1.344       .  A
N73         N446   1.317   1_554  A
N74          N75   1.312       .  A
N74        Mn836   2.301   1_545  S
N75          C77   1.347       .  A
Mn76       N1564   2.227   1_455  S
Mn76      Cl1585   2.510   1_455  S
C77         C331   1.455       .  S
C78        N2317   1.348       .  A
C78        C1233   1.475       .  S
N79          N80   1.303       .  A
N79          N85   1.318       .  A
N79         Mn87   2.240       .  S
N80          C90   1.334       .  A
N81          N82   1.310       .  A
N81          N83   1.317       .  A
N81         Mn88   2.221       .  S
N82          C91   1.337       .  A
N83          N84   1.331       .  A
N83         Mn87   2.473       .  S
N84          C91   1.357       .  A
N85          N86   1.329       .  A
N85         Mn88   2.432       .  S
N86          C90   1.359       .  A
Mn87       N1557   2.409       .  S
Mn87       Cl837   2.499       .  S
Mn88        N822   2.301       .  S
Mn88       Cl837   2.471       .  S
Cl89      Mn1572   2.481       .  S
Cl89       Mn835   2.472   1_545  S
Cl89       Mn836   2.558   1_545  S
Cl89      Mn1561   2.490       .  S
C90         C344   1.472       .  S
C91         C248   1.490       .  S
N92          N93   1.311       .  A
N92          N98   1.306       .  A
N92        Mn121   2.322       .  S
N93         C100   1.349       .  A
N94          N96   1.302       .  A
N94          N95   1.312       .  A
N94        Mn110   2.327       .  S
N95         C101   1.341       .  A
N96          N97   1.316       .  A
N96        Mn121   2.318       .  S
N97         C101   1.349       .  A
N98          N99   1.320       .  A
N98        Mn110   2.345       .  S
N99         C100   1.355       .  A
C100        C312   1.473       .  S
C101        C184   1.443       .  S
N102       N2352   1.306       .  A
N102        N477   1.320       .  A
N102       Mn132   2.319       .  S
N103        C859   1.352       .  A
N103        N476   1.320       .  A
N104        N105   1.327       .  A
N104        N106   1.331       .  A
N104       Mn858   2.281       .  S
N105        C112   1.353       .  A
N106        N107   1.327       .  A
N106      Mn1628   2.222   1_455  S
N107        C112   1.348       .  A
N108       N2346   1.305       .  A
N108        N483   1.325       .  A
N108       Mn110   2.360   1_655  S
N109       C1607   1.358       .  A
N109        N482   1.325       .  A
Mn110       N852   2.413   1_545  S
Mn110     Cl1630   2.592   1_445  S
C111        N851   1.348       .  A
C111       N1605   1.359       .  A
C111       C1200   1.483       .  S
C112        C216   1.488       .  S
N113        N114   1.326       .  A
N113        N119   1.324       .  A
N113      Mn1617   2.356       .  S
N114        C122   1.352       .  A
N115        N116   1.324       .  A
N115       N2361   1.305       .  A
N115       Mn133   2.348       .  S
N116        C123   1.356       .  A
N117        N118   1.321       .  A
N117       N2359   1.306       .  A
N117       Mn121   2.327   1_565  S
N118       C2367   1.353       .  A
N119        N120   1.333       .  A
N119       Mn881   2.422   1_545  S
N120        C122   1.363       .  A
Mn121      N1609   2.380   1_455  S
Mn121     Cl1630   2.541   1_445  S
C122        C283   1.504       .  S
C123       N2362   1.352       .  A
C123        C814   1.484       .  S
N124        N125   1.317       .  A
N124        N130   1.303       .  A
N124       Mn132   2.317       .  S
N125        C135   1.351       .  A
N126        N127   1.313       .  A
N126        N128   1.307       .  A
N126       Mn133   2.328       .  S
N127        C136   1.349       .  A
N128        N129   1.312       .  A
N128       Mn132   2.294       .  S
N129        C136   1.350       .  A
N130        N131   1.314       .  A
N130       Mn133   2.351       .  S
N131        C135   1.344       .  A
Mn132      N1602   2.349       .  S
Mn132      Cl882   2.556       .  S
Mn133       N867   2.438       .  S
Mn133      Cl882   2.573       .  S
Cl134     Mn1606   2.592       .  S
Cl134     Mn1617   2.542       .  S
Cl134      Mn880   2.551   1_545  S
Cl134      Mn881   2.583   1_545  S
C135        C296   1.451       .  S
C136        C200   1.437       .  S
C137        C139   1.594       .  S
C137        C141   1.572       .  S
C137        C140   1.581       .  S
C137        C161   1.860       .  S
C138        C142   1.563       .  S
C138        C144   1.581       .  S
C138        C143   1.573       .  S
C138        C160   1.832       .  S
C139        C147   1.383       .  A
C139        C142   1.464       .  A
C140        C151   1.387       .  A
C140        C143   1.472       .  A
C141        C155   1.371       .  A
C141        C144   1.464       .  A
C142        C145   1.373       .  A
C143        C149   1.362       .  A
C144        C152   1.372       .  A
C145        N146   1.353       .  A
C145        H158   1.081       .  S
N146        C147   1.361       .  A
N146        C267   1.439       .  S
C147        H148   1.072       .  S
C149        N150   1.337       .  A
C149        H159   1.065       .  S
N150        C151   1.341       .  A
N150        C232   1.432       .  S
C151        H157   1.063       .  S
C152        N153   1.357       .  A
C152        H154   1.075       .  S
N153        C155   1.355       .  A
N153        C251   1.430       .  S
C155        H156   1.077       .  S
C160        C162   1.566       .  S
C160        C164   1.556       .  S
C160        C163   1.592       .  S
C161        C165   1.585       .  S
C161        C167   1.554       .  S
C161        C166   1.567       .  S
C162        C170   1.361       .  A
C162        C539   1.465       .  A
C163        C174   1.382       .  A
C163        C540   1.486       .  A
C164        C178   1.360       .  A
C164        C541   1.461       .  A
C165        C168   1.377       .  A
C165        C536   1.475       .  A
C166        C172   1.365       .  A
C166        C537   1.482       .  A
C167        C175   1.356       .  A
C167        C538   1.462       .  A
C168        N543   1.357       .  A
C168        H181   1.077       .  S
N169        C170   1.351       .  A
N169        C542   1.355       .  A
N169        C593   1.419       .  S
C170        H171   1.078       .  S
C172        N547   1.330       .  A
C172        H182   1.079       .  S
N173        C174   1.345       .  A
N173        C546   1.330       .  A
N173        C561   1.428       .  S
C174        H180   1.075       .  S
C175        N550   1.348       .  A
C175        H177   1.082       .  S
N176        C178   1.352       .  A
N176        C549   1.349       .  A
N176        C577   1.407       .  S
C178        H179   1.082       .  S
C183        C184   1.388       .  A
C183        C188   1.391       .  A
C183        H190   1.085       .  S
C184        C185   1.414       .  A
C185        C192   1.510       .  S
C185        C186   1.390       .  A
C186        C187   1.393       .  A
C186        H565   1.083       .  S
C187        C188   1.421       .  A
C187        N547   1.419       .  S
C188        C189   1.505       .  S
C189        H193   1.110       .  S
C189        H194   1.109   1_554  S
C189        H195   1.100       .  S
H191        C560   1.083       .  S
C192        H197   1.111       .  S
C192        H570   1.103       .  S
C192        H572   1.102       .  S
H196        C566   1.105       .  S
H198        C566   1.104       .  S
C199        C200   1.394       .  A
C199        C204   1.380       .  A
C199        H206   1.083       .  S
C200        C201   1.404       .  A
C201        C208   1.494       .  S
C201        C202   1.390       .  A
C202        C203   1.391       .  A
C202        H207   1.084       .  S
C203        C204   1.407       .  A
C203        N550   1.403       .  S
C204        C205   1.505       .  S
C205        H209   1.108       .  S
C205        H211   1.106       .  S
C205        H584   1.101       .  S
C208        H212   1.110       .  S
C208        H213   1.108       .  S
C208        H214   1.111       .  S
H210        C579   1.100       .  S
C215        C216   1.405       .  A
C215        C220   1.398       .  A
C215        H222   1.084       .  S
C216        C217   1.420       .  A
C217        C224   1.502       .  S
C217        C218   1.405       .  A
C218        C219   1.396       .  A
C218        H597   1.084       .  S
C219        C220   1.410       .  A
C219        N543   1.431       .  S
C220        C221   1.506       .  S
C221        H225   1.111       .  S
C221        H226   1.108       .  S
C221        H227   1.104       .  S
H223        C592   1.084       .  S
C224        H229   1.109   1_455  S
C224        H602   1.107   1_554  S
C224        H604   1.111   1_454  S
H228        C598   1.110       .  S
H230        C598   1.111   1_655  S
C231        C232   1.393       .  A
C231        C236   1.390       .  A
C231        H238   1.082       .  S
C232        C233   1.416       .  A
C233        C240   1.505       .  S
C233        C234   1.396       .  A
C234        C235   1.398       .  A
C234        H239   1.077       .  S
C235        C236   1.425       .  A
C236        C237   1.514       .  S
C237        H241   1.111       .  S
C237        H242   1.108       .  S
C237        H243   1.109       .  S
C240        H244   1.109       .  S
C240        H245   1.110       .  S
C240        H246   1.110       .  S
C247        C248   1.410       .  A
C247        C252   1.409       .  A
C247        H254   1.083       .  S
C248        C249   1.427       .  A
C249        C256   1.511       .  S
C249        C250   1.395       .  A
C250        C251   1.392       .  A
C250        H255   1.084       .  S
C251        C252   1.402       .  A
C252        C253   1.501       .  S
C253        H257   1.108       .  S
C253        H258   1.110       .  S
C253        H259   1.108       .  S
C256        H260   1.106       .  S
C256        H261   1.110       .  S
C256        H262   1.111       .  S
C263        C264   1.408       .  A
C263        C268   1.405       .  A
C263        H270   1.084       .  S
C264        C265   1.423       .  A
C265        C272   1.507       .  S
C265        C266   1.410       .  A
C266        C267   1.399       .  A
C266        H271   1.083       .  S
C267        C268   1.410       .  A
C268        C269   1.506       .  S
C269        H273   1.111       .  S
C269        H274   1.109       .  S
C269        H275   1.109       .  S
C272        H276   1.110       .  S
C272        H277   1.110       .  S
C272        H278   1.111       .  S
C279        C280   1.399       .  A
C279        C284   1.408       .  A
C279        H286   1.084       .  S
C280        C281   1.406       .  A
C281        C288   1.503       .  S
C281        C282   1.409       .  A
C282        C283   1.412       .  A
C282        H287   1.083       .  S
C283        C284   1.420       .  A
C284        C285   1.502       .  S
C285        H289   1.110       .  S
C285        H290   1.108       .  S
C285        H291   1.110       .  S
C288        H292   1.110       .  S
C288        H293   1.111       .  S
C288        H294   1.111       .  S
C295        C296   1.393       .  A
C295        C300   1.397       .  A
C295        H302   1.085       .  S
C296        C297   1.413       .  A
C297        C304   1.507       .  S
C297        C298   1.390       .  A
C298        C299   1.392       .  A
C298        H303   1.083       .  S
C299        C300   1.420       .  A
C300        C301   1.506       .  S
C301        H305   1.111       .  S
C301        H306   1.104       .  S
C301        H307   1.110       .  S
C304        H308   1.104       .  S
C304        H309   1.102       .  S
C304        H310   1.110       .  S
C311        C312   1.405       .  A
C311        C316   1.404       .  A
C311        H318   1.083       .  S
C312        C313   1.416       .  A
C313        C320   1.498       .  S
C313        C314   1.380       .  A
C314        C315   1.395       .  A
C314        H319   1.082       .  S
C315        C316   1.413       .  A
C316        C317   1.505       .  S
C317        H321   1.110       .  S
C317        H322   1.109       .  S
C317        H323   1.110       .  S
C320        H324   1.108       .  S
C320        H325   1.100       .  S
C320        H326   1.107       .  S
C327        C328   1.399       .  A
C327        C332   1.386       .  A
C327        H334   1.084       .  S
C328        C329   1.393       .  A
C329        C336   1.504       .  S
C329        C330   1.387       .  A
C330        C331   1.409       .  A
C330        H335   1.084       .  S
C331        C332   1.416       .  A
C332        C333   1.512       .  S
C333        H337   1.111       .  S
C333        H338   1.109       .  S
C333        H339   1.105       .  S
C336        H340   1.110       .  S
C336        H342   1.111       .  S
C336        H715   1.111       .  S
H341        C710   1.110       .  S
C343        C344   1.396       .  A
C343        C348   1.402       .  A
C343        H350   1.082       .  S
C344        C345   1.425       .  A
C345        C726   1.512       .  S
C345        C720   1.389       .  A
C346        C719   1.390       .  A
C346        C721   1.390       .  A
C346        H351   1.082       .  S
C347        C348   1.422       .  A
C347        C720   1.391       .  A
C347        N391   1.436       .  S
C348        C349   1.505       .  S
C349        H353   1.109       .  S
C349        H354   1.111       .  S
C349        H355   1.109       .  S
C352        C719   1.512       .  S
C352        H356   1.107       .  S
C352        H357   1.108       .  S
C352        H358   1.110       .  S
C359        C360   1.410       .  A
C359        C364   1.408       .  A
C359        H366   1.083       .  S
C360        C361   1.431       .  A
C361        C742   1.510       .  S
C361        C736   1.402       .  A
C362        C735   1.397       .  A
C362        C737   1.393       .  A
C362        H367   1.084       .  S
C363        C364   1.402       .  A
C363        C736   1.394       .  A
C363        N388   1.433       .  S
C364        C365   1.501       .  S
C365        H369   1.108       .  S
C365        H370   1.107       .  S
C365        H371   1.110       .  S
C368        C735   1.511       .  S
C368        H372   1.108       .  S
C368        H373   1.104   1_556  S
C368        H374   1.110       .  S
C375        C377   1.556       .  S
C375        C379   1.577       .  S
C375        C378   1.580       .  S
C375        C399   1.852       .  S
C376        C380   1.550       .  S
C376        C382   1.577       .  S
C376        C381   1.591       .  S
C376        C398   1.840       .  S
C377        C385   1.362       .  A
C378        C389   1.374       .  A
C379        C393   1.388       .  A
C380        C383   1.353       .  A
C381        C387   1.379       .  A
C382        C390   1.368       .  A
C383        N384   1.354       .  A
C383        H396   1.083       .  S
N384        C702   1.408       .  S
C385        H386   1.081       .  S
C387        H397   1.082       .  S
N388        C389   1.353       .  A
C389        H395   1.082       .  S
C390        H392   1.071       .  S
N391        C393   1.340       .  A
C393        H394   1.066       .  S
C398        C400   1.589       .  S
C398        C402   1.585       .  S
C398        C401   1.554       .  S
C399        C403   1.592       .  S
C399        C405   1.558       .  S
C399        C404   1.563       .  S
C400        C408   1.381       .  A
C400        C403   1.479       .  A
C401        C412   1.356       .  A
C401        C404   1.457       .  A
C402        C416   1.381       .  A
C402        C405   1.476       .  A
C403        C406   1.384       .  A
C404        C410   1.369       .  A
C405        C413   1.365       .  A
C406        N407   1.358       .  A
C406        H419   1.080       .  S
N407        C408   1.356       .  A
N407        C654   1.441       .  S
C408        H409   1.082       .  S
C410        N411   1.359       .  A
C410        H420   1.082       .  S
N411        C412   1.357       .  A
N411        C689   1.429       .  S
C412        H418   1.082       .  S
C413        N414   1.330       .  A
C413        H415   1.076       .  S
N414        C416   1.344       .  A
N414        C673   1.423       .  S
C416        H417   1.075       .  S
N421        N422   1.329       .  A
N421        N427   1.315       .  A
N421       Mn450   2.461       .  S
N422        C429   1.355       .  A
N423        N425   1.314       .  A
N423        N424   1.324       .  A
N423       Mn439   2.428       .  S
N424        C430   1.356       .  A
N425        N426   1.303       .  A
N425       Mn450   2.205       .  S
N426        C430   1.332       .  A
N427        N428   1.311       .  A
N427       Mn439   2.223       .  S
N428        C429   1.338       .  A
C429        C734   1.487       .  S
C430        C609   1.466       .  S
N431       N2681   1.327       .  A
N431        N432   1.319       .  A
N431       Mn461   2.297       .  S
N432       C1188   1.351       .  A
N433        N434   1.318       .  A
N433        N435   1.328       .  A
N433      Mn1187   2.148       .  S
N434        C441   1.343       .  A
N435        N436   1.324       .  A
N435      Mn1957   2.384   1_455  S
N436        C441   1.353       .  A
N437       N2675   1.330       .  A
N437        N438   1.319       .  A
N437       Mn439   2.349   1_565  S
N438       C1936   1.356       .  A
Mn439      N1181   2.273   1_545  S
Mn439     Cl1959   2.477   1_445  S
C440       N1180   1.342       .  A
C440       N1934   1.356       .  A
C440       C1245   1.476       .  S
C441        C638   1.469       .  S
N442        N443   1.320       .  A
N442        N448   1.327       .  A
N442      Mn1946   2.375       .  S
N443        C451   1.352       .  A
N444       N2690   1.331       .  A
N444       Mn462   2.295       .  S
N445        C452   1.355       .  A
N446       N2688   1.329       .  A
N446       Mn450   2.281   1_655  S
N447       C2696   1.343       .  A
N448        N449   1.312       .  A
N448      Mn1210   2.301   1_545  S
N449        C451   1.346       .  A
Mn450      N1938   2.381   1_455  S
Mn450     Cl1959   2.484   1_445  S
C451        C705   1.451       .  S
C452       N2691   1.348       .  A
C452        C859   1.484       .  S
N453        N454   1.304       .  A
N453        N459   1.314       .  A
N453       Mn461   2.239       .  S
N454        C464   1.336       .  A
N455        N456   1.312       .  A
N455        N457   1.315       .  A
N455       Mn462   2.219       .  S
N456        C465   1.338       .  A
N457        N458   1.332       .  A
N457       Mn461   2.470       .  S
N458        C465   1.357       .  A
N459        N460   1.330       .  A
N459       Mn462   2.432       .  S
N460        C464   1.361       .  A
Mn461      N1931   2.406       .  S
Mn461     Cl1211   2.576       .  S
Mn462      N1196   2.285       .  S
Mn462     Cl1211   2.452       .  S
Cl463     Mn1946   2.482       .  S
Cl463     Mn1209   2.472   1_545  S
Cl463     Mn1210   2.561   1_545  S
Cl463     Mn1935   2.493       .  S
C464        C718   1.476       .  S
C465        C622   1.492       .  S
N466        N467   1.311       .  A
N466        N472   1.306       .  A
N466       Mn495   2.324       .  S
N467        C474   1.350       .  A
N468        N470   1.302       .  A
N468        N469   1.309       .  A
N468       Mn484   2.318       .  S
N469        C475   1.338       .  A
N470        N471   1.316       .  A
N470       Mn495   2.324       .  S
N471        C475   1.348       .  A
N472        N473   1.317       .  A
N472       Mn484   2.334       .  S
N473        C474   1.353       .  A
C474        C686   1.470       .  S
C475        C558   1.440       .  S
N476       N2726   1.306       .  A
N476       Mn506   2.324       .  S
N477       C1233   1.351       .  A
N478        N479   1.323       .  A
N478        N480   1.332       .  A
N478      Mn1232   2.306       .  S
N479        C486   1.354       .  A
N480        N481   1.319       .  A
N480      Mn2002   2.210   1_455  S
N481        C486   1.344       .  A
N482       N2720   1.305       .  A
N482       Mn484   2.359   1_655  S
N483       C1981   1.359       .  A
Mn484      N1226   2.408   1_545  S
Mn484     Cl2004   2.587   1_455  S
C485       N1225   1.347       .  A
C485       N1979   1.360       .  A
C485        C826   1.483       .  S
C486        C590   1.470       .  S
N487        N488   1.325       .  A
N487        N493   1.324       .  A
N487      Mn1991   2.356       .  S
N488        C496   1.350       .  A
N489       N2735   1.305       .  A
N489        N490   1.324       .  A
N489       Mn507   2.343       .  S
N490        C497   1.356       .  A
N491       N2733   1.306   1_455  A
N491        N492   1.320       .  A
N491       Mn495   2.323   1_565  S
N492       C2741   1.351       .  A
N493        N494   1.334       .  A
N493      Mn1255   2.421   1_545  S
N494        C496   1.363       .  A
Mn495      N1983   2.387   1_455  S
Mn495     Cl2004   2.542   1_455  S
C496        C657   1.501       .  S
C497       N2736   1.353       .  A
C497       C1188   1.485       .  S
N498        N499   1.319       .  A
N498        N504   1.303       .  A
N498       Mn506   2.326       .  S
N499        C509   1.350       .  A
N500        N501   1.314       .  A
N500        N502   1.307       .  A
N500       Mn507   2.332       .  S
N501        C510   1.351       .  A
N502        N503   1.313       .  A
N502       Mn506   2.304       .  S
N503        C510   1.351       .  A
N504        N505   1.314       .  A
N504       Mn507   2.352       .  S
N505        C509   1.342       .  A
Mn506      N1976   2.357       .  S
Mn506     Cl1256   2.557       .  S
Mn507      N1241   2.427       .  S
Mn507     Cl1256   2.582       .  S
Cl508     Mn1980   2.587       .  S
Cl508     Mn1991   2.541       .  S
Cl508     Mn1254   2.541   1_545  S
Cl508     Mn1255   2.585   1_545  S
C509        C670   1.454       .  S
C510        C574   1.442       .  S
C511        C513   1.573       .  S
C511        C515   1.569       .  S
C511        C514   1.576       .  S
C511        C535   1.845       .  S
C512        C516   1.555       .  S
C512        C518   1.591       .  S
C512        C517   1.574       .  S
C512        C534   1.836       .  S
C513        C521   1.374       .  A
C513        C516   1.462       .  A
C514        C525   1.382       .  A
C514        C517   1.473       .  A
C515        C529   1.370       .  A
C515        C518   1.472       .  A
C516        C519   1.359       .  A
C517        C523   1.365       .  A
C518        C526   1.376       .  A
C519        N520   1.349       .  A
C519        H532   1.079       .  S
N520        C521   1.356       .  A
N520        C641   1.421       .  S
C521        H522   1.078       .  S
C523        N524   1.337       .  A
C523        H533   1.068       .  S
N524        C525   1.337       .  A
N524        C606   1.429       .  S
C525        H531   1.058       .  S
C526        N527   1.357       .  A
C526        H528   1.077       .  S
N527        C529   1.352       .  A
N527        C625   1.432       .  S
C529        H530   1.079       .  S
C534        C536   1.582   1_556  S
C534        C538   1.553   1_556  S
C534        C537   1.582   1_556  S
C535        C539   1.566       .  S
C535        C541   1.554       .  S
C535        C540   1.568       .  S
C536        C544   1.371       .  A
C537        C548   1.378       .  A
C538        C552   1.358       .  A
C539        C542   1.364       .  A
C540        C546   1.364       .  A
C541        C549   1.358       .  A
C542        H555   1.073       .  S
N543        C544   1.352       .  A
C544        H545   1.080   1_554  S
C546        H556   1.071       .  S
N547        C548   1.341       .  A
C548        H554   1.077   1_554  S
C549        H551   1.082       .  S
N550        C552   1.351       .  A
C552        H553   1.082   1_554  S
C557        C558   1.382       .  A
C557        C562   1.386       .  A
C557        H564   1.086       .  S
C558        C559   1.413       .  A
C559        C566   1.510       .  S
C559        C560   1.394       .  A
C560        C561   1.396       .  A
C561        C562   1.427       .  A
C562        C563   1.497       .  S
C563        H567   1.110       .  S
C563        H568   1.085       .  S
C563        H569   1.111       .  S
C566        H571   1.111       .  S
C573        C574   1.396       .  A
C573        C578   1.382       .  A
C573        H580   1.083       .  S
C574        C575   1.406       .  A
C575        C582   1.495       .  S
C575        C576   1.392       .  A
C576        C577   1.392       .  A
C576        H581   1.084       .  S
C577        C578   1.407       .  A
C578        C579   1.505       .  S
C579        H583   1.108       .  S
C579        H585   1.107       .  S
C582        H586   1.110       .  S
C582        H587   1.108       .  S
C582        H588   1.111       .  S
C589        C590   1.400       .  A
C589        C594   1.386       .  A
C589        H596   1.084       .  S
C590        C591   1.420       .  A
C591        C598   1.507       .  S
C591        C592   1.400       .  A
C592        C593   1.395       .  A
C593        C594   1.414       .  A
C594        C595   1.509       .  S
C595        H599   1.111       .  S
C595        H600   1.101       .  S
C595        H601   1.111       .  S
C598        H603   1.109   1_455  S
C605        C606   1.391       .  A
C605        C610   1.390       .  A
C605        H612   1.082       .  S
C606        C607   1.418       .  A
C607        C614   1.506       .  S
C607        C608   1.393       .  A
C608        C609   1.395       .  A
C608        H613   1.076       .  S
C609        C610   1.425       .  A
C610        C611   1.514       .  S
C611        H615   1.111       .  S
C611        H616   1.109       .  S
C611        H617   1.110       .  S
C614        H618   1.110       .  S
C614        H619   1.111       .  S
C614        H620   1.110       .  S
C621        C622   1.410       .  A
C621        C626   1.409       .  A
C621        H628   1.083       .  S
C622        C623   1.428       .  A
C623        C630   1.510       .  S
C623        C624   1.398       .  A
C624        C625   1.392       .  A
C624        H629   1.084       .  S
C625        C626   1.402       .  A
C626        C627   1.500       .  S
C627        H631   1.108       .  S
C627        H632   1.110       .  S
C627        H633   1.107       .  S
C630        H634   1.106       .  S
C630        H635   1.110       .  S
C630        H636   1.111       .  S
C637        C638   1.402       .  A
C637        C642   1.391       .  A
C637        H644   1.084       .  S
C638        C639   1.419       .  A
C639        C646   1.508       .  S
C639        C640   1.398       .  A
C640        C641   1.394       .  A
C640        H645   1.084       .  S
C641        C642   1.409       .  A
C642        C643   1.503       .  S
C643        H647   1.111       .  S
C643        H648   1.110       .  S
C643        H649   1.102       .  S
C646        H650   1.111       .  S
C646        H651   1.110       .  S
C646        H652   1.111       .  S
C653        C654   1.401       .  A
C653        C658   1.409       .  A
C653        H660   1.084       .  S
C654        C655   1.406       .  A
C655        C662   1.504       .  S
C655        C656   1.406       .  A
C656        C657   1.411       .  A
C656        H661   1.084       .  S
C657        C658   1.418       .  A
C658        C659   1.501       .  S
C659        H663   1.110       .  S
C659        H664   1.109       .  S
C659        H665   1.110       .  S
C662        H666   1.110       .  S
C662        H667   1.110       .  S
C662        H668   1.111       .  S
C669        C670   1.392       .  A
C669        C674   1.397       .  A
C669        H676   1.085       .  S
C670        C671   1.413       .  A
C671        C678   1.507       .  S
C671        C672   1.393       .  A
C672        C673   1.395       .  A
C672        H677   1.083       .  S
C673        C674   1.419       .  A
C674        C675   1.506       .  S
C675        H679   1.110       .  S
C675        H680   1.104       .  S
C675        H681   1.109       .  S
C678        H682   1.105       .  S
C678        H683   1.103       .  S
C678        H684   1.110       .  S
C685        C686   1.406       .  A
C685        C690   1.403       .  A
C685        H692   1.084       .  S
C686        C687   1.414       .  A
C687        C694   1.498       .  S
C687        C688   1.379       .  A
C688        C689   1.395       .  A
C688        H693   1.082       .  S
C689        C690   1.412       .  A
C690        C691   1.505       .  S
C691        H695   1.110       .  S
C691        H696   1.109       .  S
C691        H697   1.110       .  S
C694        H698   1.108       .  S
C694        H699   1.102       .  S
C694        H700   1.108       .  S
C701        C702   1.400       .  A
C701        C706   1.384       .  A
C701        H708   1.084       .  S
C702        C703   1.395       .  A
C703        C710   1.505       .  S
C703        C704   1.387       .  A
C704        C705   1.408       .  A
C704        H709   1.084       .  S
C705        C706   1.415       .  A
C706        C707   1.512       .  S
C707        H711   1.111       .  S
C707        H712   1.108       .  S
C707        H713   1.103       .  S
C710        H714   1.110       .  S
C710        H716   1.111       .  S
C717        C718   1.398       .  A
C717        C722   1.403       .  A
C717        H724   1.082       .  S
C718        C719   1.426       .  A
C720        H725   1.082       .  S
C721        C722   1.422       .  A
C722        C723   1.506       .  S
C723        H727   1.109       .  S
C723        H728   1.110   1_556  S
C723        H729   1.109       .  S
C726        H730   1.107       .  S
C726        H731   1.108       .  S
C726        H732   1.110       .  S
C733        C734   1.410       .  A
C733        C738   1.405       .  A
C733        H740   1.083       .  S
C734        C735   1.428       .  A
C736        H741   1.084       .  S
C737        C738   1.400       .  A
C738        C739   1.502       .  S
C739        H743   1.109       .  S
C739        H744   1.108       .  S
C739        H745   1.110   1_556  S
C742        H746   1.108       .  S
C742        H747   1.102       .  S
C742        H748   1.111       .  S
C749        C751   1.555   1_554  S
C749        C753   1.579   1_554  S
C749        C752   1.589   1_554  S
C749        C773   1.855       .  S
C750        C754   1.553       .  S
C750        C756   1.572       .  S
C750        C755   1.597       .  S
C750        C772   1.836       .  S
C751        C759   1.361       .  A
C751       C1128   1.455       .  A
C752        C763   1.383       .  A
C752       C1129   1.484       .  A
C753        C767   1.386       .  A
C753       C1130   1.470       .  A
C754       C1125   1.457       .  A
C754        C757   1.353       .  A
C755       C1126   1.485       .  A
C755        C761   1.386       .  A
C756       C1127   1.466       .  A
C756        C764   1.368       .  A
C757        N758   1.354       .  A
C757        H770   1.083       .  S
N758       C1133   1.349       .  A
N758       C1076   1.403       .  S
C759       N1132   1.353       .  A
C759        H760   1.081   1_556  S
C761       N1136   1.358       .  A
C761        H771   1.081       .  S
N762       C1135   1.355       .  A
N762        C763   1.358       .  A
N762       C1485   1.440       .  S
C763        H769   1.082   1_556  S
C764       N1139   1.340       .  A
C764        H766   1.071       .  S
N765       C1138   1.340       .  A
N765        C767   1.341       .  A
N765       C1469   1.436       .  S
C767        H768   1.066   1_556  S
C772        C774   1.592       .  S
C772        C776   1.584       .  S
C772        C775   1.549       .  S
C773        C777   1.599       .  S
C773        C779   1.559       .  S
C773        C778   1.561       .  S
C774        C782   1.381       .  A
C774        C777   1.476       .  A
C775        C786   1.356       .  A
C775        C778   1.458       .  A
C776        C790   1.379       .  A
C776        C779   1.475       .  A
C777        C780   1.388       .  A
C778        C784   1.367       .  A
C779        C787   1.366       .  A
C780        N781   1.363       .  A
C780        H793   1.080       .  S
N781        C782   1.358       .  A
N781       C1028   1.447       .  S
C782        H783   1.082       .  S
C784        N785   1.356       .  A
C784        H794   1.081       .  S
N785        C786   1.353       .  A
N785       C1063   1.419       .  S
C786        H792   1.083       .  S
C787        N788   1.329       .  A
C787        H789   1.076       .  S
N788        C790   1.344       .  A
N788       C1047   1.423       .  S
C790        H791   1.073       .  S
N795        N796   1.353       .  A
N795        N801   1.317       .  A
N795       Mn824   2.373   1_455  S
N796        C803   1.384       .  A
N797        N799   1.319       .  A
N797        N798   1.332       .  A
N797       Mn813   2.292       .  S
N798        C804   1.361       .  A
N799        N800   1.307       .  A
N799       Mn824   2.102   1_455  S
N800        C804   1.327       .  A
N801        N802   1.308       .  A
N801       Mn813   2.066       .  S
N802        C803   1.326       .  A
C803       C1108   1.534       .  S
C804        C983   1.480       .  S
N805       N1559   1.333       .  A
N805        N806   1.321       .  A
N805       Mn835   2.267       .  S
N807        N808   1.306       .  A
N807        N809   1.325       .  A
N808        C815   1.335       .  A
N809        N810   1.327       .  A
N809      Mn2331   2.409   1_455  S
N810        C815   1.363       .  A
N811       N1553   1.324       .  A
N811        N812   1.326       .  A
N811       Mn813   2.154       .  S
N812       C2310   1.359       .  A
Mn813     Cl2333   2.537   1_455  S
C814       N2308   1.355       .  A
C815       C1012   1.459       .  S
N816        N817   1.321       .  A
N816        N822   1.329       .  A
N816      Mn2320   2.371       .  S
N817        C825   1.352       .  A
N818       N1568   1.326       .  A
N818       N1193   1.320       .  A
N818       Mn836   2.339   1_545  S
N819        C826   1.359       .  A
N819       N1192   1.320   1_554  A
N820       N1566   1.338       .  A
N820       N1195   1.303       .  A
N820       Mn824   2.130       .  S
N821       C1574   1.345   1_556  A
N821       N1194   1.311       .  A
N822        N823   1.308       .  A
N823        C825   1.343       .  A
Mn824      N2312   2.193       .  S
Mn824     Cl2333   2.586       .  S
C825       C1079   1.446       .  S
C826       N1569   1.345       .  A
N827        N828   1.303       .  A
N827        N833   1.315       .  A
N827       Mn835   2.232       .  S
N828        C838   1.335       .  A
N829        N830   1.313       .  A
N829        N831   1.314       .  A
N829       Mn836   2.228       .  S
N830        C839   1.340       .  A
N831        N832   1.331       .  A
N831       Mn835   2.464       .  S
N832        C839   1.356       .  A
N833        N834   1.329       .  A
N833       Mn836   2.433       .  S
N834        C838   1.360       .  A
Mn835      N2305   2.380       .  S
Cl837     Mn2309   2.470       .  S
Cl837     Mn2320   2.501       .  S
C838       C1092   1.474       .  S
C839        C996   1.494       .  S
N840        N841   1.312       .  A
N840        N846   1.313       .  A
N840       Mn869   2.266       .  S
N841        C848   1.352       .  A
N842        N844   1.309       .  A
N842        N843   1.307       .  A
N842       Mn858   2.246       .  S
N843        C849   1.334       .  A
N844        N845   1.317       .  A
N844       Mn869   2.280       .  S
N845        C849   1.335       .  A
N846        N847   1.317       .  A
N846       Mn858   2.278       .  S
N847        C848   1.354       .  A
C848       C1060   1.468       .  S
C849        C932   1.450       .  S
N850       N1604   1.306       .  A
N850       N1225   1.319       .  A
N850       Mn880   2.322   1_545  S
N851       N1224   1.321       .  A
N852        N853   1.334       .  A
N852        N854   1.323       .  A
N853        C860   1.364       .  A
N854        N855   1.323       .  A
N854      Mn2376   2.339   1_455  S
N855        C860   1.349       .  A
N856       N1598   1.316       .  A
N856       N1231   1.336       .  A
N856       Mn858   2.252   1_655  S
N857       C2355   1.342   1_455  A
N857       N1230   1.325       .  A
Mn858     Cl2378   2.646   1_455  S
C859       N2353   1.355       .  A
C860        C964   1.500       .  S
N861        N862   1.328       .  A
N861        N867   1.323       .  A
N861      Mn2365   2.354       .  S
N862        C870   1.352       .  A
N863       N1613   1.307   1_565  A
N863        N864   1.325       .  A
N863       Mn881   2.360       .  S
N864        C871   1.359       .  A
N865       N1611   1.299   1_455  A
N865        N866   1.327       .  A
N865       Mn869   2.378       .  S
N866       C1619   1.338       .  A
N867        N868   1.335       .  A
N868        C870   1.366       .  A
Mn869      N2357   2.366   1_455  S
Mn869     Cl2378   2.499   1_455  S
C870       C1031   1.511       .  S
C871       N1614   1.348       .  A
N872        N873   1.317       .  A
N872        N878   1.303       .  A
N872       Mn880   2.329       .  S
N873        C883   1.350       .  A
N874        N875   1.316       .  A
N874        N876   1.307       .  A
N874       Mn881   2.346       .  S
N875        C884   1.354       .  A
N876        N877   1.310       .  A
N876       Mn880   2.291       .  S
N877        C884   1.349       .  A
N878        N879   1.313       .  A
N878       Mn881   2.335       .  S
N879        C883   1.342       .  A
Mn880      N2350   2.343       .  S
Cl882     Mn2354   2.579       .  S
Cl882     Mn2365   2.562       .  S
C883       C1044   1.450       .  S
C884        C948   1.444       .  S
C885        C887   1.561       .  S
C885        C889   1.585       .  S
C885        C888   1.567       .  S
C885        C909   1.851       .  S
C886        C890   1.553       .  S
C886        C892   1.590       .  S
C886        C891   1.571       .  S
C886        C908   1.833       .  S
C887        C895   1.367       .  A
C887        C890   1.459       .  A
C888        C899   1.375       .  A
C888        C891   1.468       .  A
C889        C903   1.379       .  A
C889        C892   1.486       .  A
C890        C893   1.351       .  A
C891        C897   1.372       .  A
C892        C900   1.378       .  A
C893        N894   1.348       .  A
C893        H906   1.079       .  S
N894        C895   1.351       .  A
N894       C1015   1.412       .  S
C895        H896   1.078       .  S
C897        N898   1.344       .  A
C897        H907   1.075       .  S
N898        C899   1.336       .  A
N898        C980   1.435       .  S
C899        H905   1.060       .  S
C900        N901   1.353       .  A
C900        H902   1.079       .  S
N901        C903   1.354       .  A
N901        C999   1.434       .  S
C903        H904   1.081       .  S
C908        C910   1.591       .  S
C908        C912   1.553       .  S
C908        C911   1.586       .  S
C909        C913   1.582       .  S
C909        C915   1.558       .  S
C909        C914   1.562       .  S
C910        C918   1.384       .  A
C910       C1287   1.476       .  A
C911        C922   1.382       .  A
C911       C1288   1.469       .  A
C912        C926   1.363       .  A
C912       C1289   1.459       .  A
C913       C1284   1.480       .  A
C913        C916   1.378       .  A
C914       C1285   1.471       .  A
C914        C920   1.372       .  A
C915       C1286   1.462       .  A
C915        C923   1.359       .  A
C916       N1291   1.353       .  A
C916        H929   1.077       .  S
N917       C1290   1.357       .  A
N917        C918   1.354       .  A
N917       C1341   1.443       .  S
C918        H919   1.079       .  S
C920       N1295   1.330       .  A
C920        H930   1.073       .  S
N921       C1294   1.336       .  A
N921        C922   1.349       .  A
N921       C1309   1.440       .  S
C922        H928   1.067       .  S
C923       N1298   1.350       .  A
C923        H925   1.082       .  S
N924       C1297   1.349       .  A
N924        C926   1.352       .  A
N924       C1325   1.409       .  S
C926        H927   1.082       .  S
C931        C932   1.397       .  A
C931        C936   1.398       .  A
C931        H938   1.085       .  S
C932        C933   1.409       .  A
C933        C940   1.509       .  S
C933        C934   1.393       .  A
C934        C935   1.397       .  A
C934       H1313   1.084       .  S
C935        C936   1.415       .  A
C935       N1295   1.422       .  S
C936        C937   1.508       .  S
C937        H941   1.111       .  S
C937        H942   1.101   1_554  S
C937        H943   1.108       .  S
H939       C1308   1.084       .  S
C940       H1318   1.107       .  S
C940        H945   1.108       .  S
C940       H1320   1.102       .  S
H944       C1314   1.107       .  S
H946       C1314   1.101       .  S
C947        C948   1.397       .  A
C947        C952   1.379       .  A
C947        H954   1.085       .  S
C948        C949   1.405       .  A
C949        C956   1.500       .  S
C949        C950   1.395       .  A
C950        C951   1.398       .  A
C950        H955   1.084       .  S
C951        C952   1.407       .  A
C951       N1298   1.409       .  S
C952        C953   1.506       .  S
C953        H957   1.110       .  S
C953       H1332   1.110   1_554  S
C953        H959   1.103       .  S
C956        H960   1.110   1_565  S
C956        H961   1.109       .  S
C956        H962   1.111       .  S
H958       C1327   1.110       .  S
C963        C964   1.406       .  A
C963        C968   1.406       .  A
C963        H970   1.083       .  S
C964        C965   1.426       .  A
C965        C972   1.508       .  S
C965        C966   1.407       .  A
C966        C967   1.396       .  A
C966       H1345   1.084       .  S
C967        C968   1.411       .  A
C967       N1291   1.440       .  S
C968        C969   1.504       .  S
C969        H973   1.111       .  S
C969        H974   1.107   1_554  S
C969        H975   1.109       .  S
H971       C1340   1.083       .  S
C972       H1350   1.109       .  S
C972        H977   1.110       .  S
C972       H1352   1.111       .  S
H976       C1346   1.109       .  S
H978       C1346   1.111       .  S
C979        C980   1.391       .  A
C979        C984   1.394       .  A
C979        H986   1.083       .  S
C980        C981   1.422       .  A
C981        C988   1.507       .  S
C981        C982   1.399       .  A
C982        C983   1.395       .  A
C982        H987   1.075       .  S
C983        C984   1.428       .  A
C984        C985   1.513       .  S
C985        H989   1.111       .  S
C985        H990   1.107       .  S
C985        H991   1.110       .  S
C988        H992   1.108       .  S
C988        H993   1.106       .  S
C988        H994   1.111       .  S
C995        C996   1.409       .  A
C995       C1000   1.408       .  A
C995       H1002   1.083       .  S
C996        C997   1.427       .  A
C997       C1004   1.510       .  S
C997        C998   1.401       .  A
C998        C999   1.394       .  A
C998       H1003   1.084       .  S
C999       C1000   1.400       .  A
C1000      C1001   1.497       .  S
C1001      H1005   1.107       .  S
C1001      H1006   1.109       .  S
C1001      H1007   1.107       .  S
C1004      H1008   1.108       .  S
C1004      H1009   1.111       .  S
C1004      H1010   1.111       .  S
C1011      C1012   1.396       .  A
C1011      C1016   1.386       .  A
C1011      H1018   1.085       .  S
C1012      C1013   1.425       .  A
C1013      C1020   1.512       .  S
C1013      C1014   1.389       .  A
C1014      C1015   1.386       .  A
C1014      H1019   1.084       .  S
C1015      C1016   1.418       .  A
C1016      C1017   1.510       .  S
C1017      H1021   1.110       .  S
C1017      H1022   1.100       .  S
C1017      H1023   1.110       .  S
C1020      H1024   1.110       .  S
C1020      H1025   1.110       .  S
C1020      H1026   1.111       .  S
C1027      C1028   1.399       .  A
C1027      C1032   1.411       .  A
C1027      H1034   1.084       .  S
C1028      C1029   1.409       .  A
C1029      C1036   1.503       .  S
C1029      C1030   1.412       .  A
C1030      C1031   1.412       .  A
C1030      H1035   1.083       .  S
C1031      C1032   1.419       .  A
C1032      C1033   1.496       .  S
C1033      H1037   1.109       .  S
C1033      H1038   1.109       .  S
C1033      H1039   1.110       .  S
C1036      H1040   1.110       .  S
C1036      H1041   1.110       .  S
C1036      H1042   1.111       .  S
C1043      C1044   1.393       .  A
C1043      C1048   1.396       .  A
C1043      H1050   1.085       .  S
C1044      C1045   1.414       .  A
C1045      C1052   1.510       .  S
C1045      C1046   1.392       .  A
C1046      C1047   1.396       .  A
C1046      H1051   1.083       .  S
C1047      C1048   1.418       .  A
C1048      C1049   1.506       .  S
C1049      H1053   1.110       .  S
C1049      H1054   1.105       .  S
C1049      H1055   1.109       .  S
C1052      H1056   1.105       .  S
C1052      H1057   1.105       .  S
C1052      H1058   1.110       .  S
C1059      C1060   1.406       .  A
C1059      C1064   1.401       .  A
C1059      H1066   1.084       .  S
C1060      C1061   1.416       .  A
C1061      C1068   1.498       .  S
C1061      C1062   1.381       .  A
C1062      C1063   1.392       .  A
C1062      H1067   1.084       .  S
C1063      C1064   1.406       .  A
C1064      C1065   1.506       .  S
C1065      H1069   1.111       .  S
C1065      H1070   1.110       .  S
C1065      H1071   1.108       .  S
C1068      H1072   1.106       .  S
C1068      H1073   1.102       .  S
C1068      H1074   1.110       .  S
C1075      C1076   1.401       .  A
C1075      C1080   1.386       .  A
C1075      H1082   1.084       .  S
C1076      C1077   1.389       .  A
C1077      C1084   1.504       .  S
C1077      C1078   1.380       .  A
C1078      C1079   1.408       .  A
C1078      H1083   1.084       .  S
C1079      C1080   1.413       .  A
C1080      C1081   1.511       .  S
C1081      H1085   1.111       .  S
C1081      H1086   1.109       .  S
C1081      H1087   1.107       .  S
C1084      H1088   1.110       .  S
C1084      H1463   1.111       .  S
C1084      H1090   1.111       .  S
H1089      C1458   1.110       .  S
C1091      C1092   1.397       .  A
C1091      C1096   1.401       .  A
C1091      H1098   1.081       .  S
C1092      C1093   1.426       .  A
C1093      C1474   1.513       .  S
C1093      C1468   1.392       .  A
C1094      C1467   1.392       .  A
C1094      C1469   1.391       .  A
C1094      H1099   1.082       .  S
C1095      C1468   1.391       .  A
C1095      C1096   1.418       .  A
C1095      N1139   1.433       .  S
C1096      C1097   1.505       .  S
C1097      H1101   1.104       .  S
C1097      H1102   1.110       .  S
C1097      H1103   1.108       .  S
C1100      C1467   1.512       .  S
C1100      H1104   1.108       .  S
C1100      H1105   1.108       .  S
C1100      H1106   1.110       .  S
C1107      C1108   1.410       .  A
C1107      C1112   1.428       .  A
C1107      H1114   1.082       .  S
C1108      C1109   1.448       .  A
C1109      C1490   1.515       .  S
C1109      C1484   1.412       .  A
C1110      C1483   1.403       .  A
C1110      C1485   1.390       .  A
C1110      H1115   1.084       .  S
C1111      C1484   1.390       .  A
C1111      C1112   1.409       .  A
C1111      N1136   1.455       .  S
C1112      C1113   1.493       .  S
C1113      H1117   1.101       .  S
C1113      H1118   1.109       .  S
C1113      H1119   1.110       .  S
C1116      C1483   1.512       .  S
C1116      H1120   1.109       .  S
C1116      H1121   1.107   1_556  S
C1116      H1122   1.111       .  S
C1123      C1125   1.550       .  S
C1123      C1127   1.576       .  S
C1123      C1126   1.601       .  S
C1123      C1147   1.858       .  S
C1124      C1128   1.553       .  S
C1124      C1130   1.575       .  S
C1124      C1129   1.590       .  S
C1124      C1146   1.835       .  S
C1125      C1133   1.357       .  A
C1126      C1137   1.394       .  A
C1127      C1141   1.382       .  A
C1128      C1131   1.354       .  A
C1129      C1135   1.380       .  A
C1130      C1138   1.369       .  A
C1131      N1132   1.354       .  A
C1131      H1144   1.083       .  S
N1132      C1450   1.409       .  S
C1133      H1134   1.081       .  S
C1135      H1145   1.082       .  S
N1136      C1137   1.365       .  A
C1137      H1143   1.082       .  S
C1138      H1140   1.073       .  S
N1139      C1141   1.340       .  A
C1141      H1142   1.067       .  S
C1146      C1148   1.587       .  S
C1146      C1150   1.582       .  S
C1146      C1149   1.546       .  S
C1147      C1151   1.604       .  S
C1147      C1153   1.559       .  S
C1147      C1152   1.560       .  S
C1148      C1156   1.378       .  A
C1148      C1151   1.474       .  A
C1149      C1160   1.354       .  A
C1149      C1152   1.461       .  A
C1150      C1164   1.376       .  A
C1150      C1153   1.476       .  A
C1151      C1154   1.389       .  A
C1152      C1158   1.368       .  A
C1153      C1161   1.367       .  A
C1154      N1155   1.365       .  A
C1154      H1167   1.081       .  S
N1155      C1156   1.357       .  A
N1155      C1402   1.446       .  S
C1156      H1157   1.082       .  S
C1158      N1159   1.355       .  A
C1158      H1168   1.081       .  S
N1159      C1160   1.351       .  A
N1159      C1437   1.417       .  S
C1160      H1166   1.082       .  S
C1161      N1162   1.328       .  A
C1161      H1163   1.077       .  S
N1162      C1164   1.342       .  A
N1162      C1421   1.420       .  S
C1164      H1165   1.073       .  S
N1169      N1170   1.345       .  A
N1169      N1175   1.322       .  A
N1169     Mn1198   2.329       .  S
N1170      C1177   1.376       .  A
N1171      N1173   1.323       .  A
N1171      N1172   1.328       .  A
N1171     Mn1187   2.300       .  S
N1172      C1178   1.358       .  A
N1173      N1174   1.308       .  A
N1173     Mn1198   2.104       .  S
N1174      C1178   1.329       .  A
N1175      N1176   1.306       .  A
N1175     Mn1187   2.087       .  S
N1176      C1177   1.327       .  A
C1177      C1482   1.506       .  S
C1178      C1357   1.480       .  S
N1179      N1933   1.333       .  A
N1179      N1180   1.320       .  A
N1179     Mn1209   2.264       .  S
N1181      N1182   1.307       .  A
N1181      N1183   1.328       .  A
N1182      C1189   1.336       .  A
N1183      N1184   1.322       .  A
N1183     Mn2705   2.400   1_455  S
N1184      C1189   1.360       .  A
N1185      N1927   1.328       .  A
N1185      N1186   1.326       .  A
N1185     Mn1187   2.222       .  S
N1186      C2684   1.363       .  A
Mn1187    Cl2707   2.472   1_455  S
C1188      N2682   1.355       .  A
C1189      C1386   1.452       .  S
N1190      N1191   1.320       .  A
N1190      N1196   1.333       .  A
N1190     Mn2694   2.237       .  S
N1191      C1199   1.352       .  A
N1192      N1942   1.326       .  A
N1192     Mn1210   2.342   1_545  S
N1193      C1200   1.358       .  A
N1194      N1940   1.326       .  A
N1194     Mn1198   2.134   1_655  S
N1195      C1948   1.328       .  A
N1196      N1197   1.311       .  A
N1197      C1199   1.340       .  A
Mn1198     N2686   2.223   1_455  S
Mn1198    Cl2707   2.490   1_455  S
C1199      C1453   1.450       .  S
C1200      N1943   1.347       .  A
N1201      N1202   1.304       .  A
N1201      N1207   1.316       .  A
N1201     Mn1209   2.236       .  S
N1202      C1212   1.335       .  A
N1203      N1204   1.313       .  A
N1203      N1205   1.315       .  A
N1203     Mn1210   2.232       .  S
N1204      C1213   1.340       .  A
N1205      N1206   1.332       .  A
N1205     Mn1209   2.466       .  S
N1206      C1213   1.357       .  A
N1207      N1208   1.329       .  A
N1207     Mn1210   2.432       .  S
N1208      C1212   1.360       .  A
Mn1209     N2679   2.387       .  S
Cl1211    Mn2683   2.450       .  S
Cl1211    Mn2694   2.507       .  S
C1212      C1466   1.474       .  S
C1213      C1370   1.496       .  S
N1214      N1215   1.312       .  A
N1214      N1220   1.320       .  A
N1214     Mn1243   2.274       .  S
N1215      C1222   1.356       .  A
N1216      N1218   1.298       .  A
N1216      N1217   1.318       .  A
N1216     Mn1232   2.199       .  S
N1217      C1223   1.344       .  A
N1218      N1219   1.322       .  A
N1218     Mn1243   2.172       .  S
N1219      C1223   1.343       .  A
N1220      N1221   1.314       .  A
N1220     Mn1232   2.212       .  S
N1221      C1222   1.354       .  A
C1222      C1434   1.466       .  S
C1223      C1306   1.484       .  S
N1224      N1978   1.306       .  A
N1224     Mn1254   2.330   1_545  S
N1226      N1227   1.334       .  A
N1226      N1228   1.323       .  A
N1227      C1234   1.364       .  A
N1228      N1229   1.324       .  A
N1228     Mn2750   2.349   1_455  S
N1229      C1234   1.351       .  A
N1230      N1972   1.318   1_455  A
N1230     Mn1232   2.144       .  S
N1231      C2729   1.344       .  A
Mn1232    Cl2752   2.615       .  S
C1233      N2727   1.355       .  A
C1234      C1338   1.504       .  S
N1235      N1236   1.327       .  A
N1235      N1241   1.323       .  A
N1235     Mn2739   2.355       .  S
N1236      C1244   1.352       .  A
N1237      N1987   1.307   1_565  A
N1237      N1238   1.325       .  A
N1237     Mn1255   2.360       .  S
N1238      C1245   1.359       .  A
N1239      N1985   1.306       .  A
N1239      N1240   1.349       .  A
N1239     Mn1243   2.367       .  S
N1240      C1993   1.337       .  A
N1241      N1242   1.334       .  A
N1242      C1244   1.364       .  A
Mn1243     N2731   2.301   1_455  S
Mn1243    Cl2752   2.415       .  S
C1244      C1405   1.505       .  S
C1245      N1988   1.348       .  A
N1246      N1247   1.317       .  A
N1246      N1252   1.303       .  A
N1246     Mn1254   2.326       .  S
N1247      C1257   1.349       .  A
N1248      N1249   1.315       .  A
N1248      N1250   1.307       .  A
N1248     Mn1255   2.346       .  S
N1249      C1258   1.354       .  A
N1250      N1251   1.310       .  A
N1250     Mn1254   2.293       .  S
N1251      C1258   1.350       .  A
N1252      N1253   1.313       .  A
N1252     Mn1255   2.332       .  S
N1253      C1257   1.343       .  A
Mn1254     N2724   2.349       .  S
Cl1256    Mn2728   2.586       .  S
Cl1256    Mn2739   2.556       .  S
C1257      C1418   1.448       .  S
C1258      C1322   1.444       .  S
C1259      C1261   1.561       .  S
C1259      C1263   1.592       .  S
C1259      C1262   1.566       .  S
C1259      C1283   1.857       .  S
C1260      C1264   1.544       .  S
C1260      C1266   1.589       .  S
C1260      C1265   1.583       .  S
C1260      C1282   1.840       .  S
C1261      C1269   1.366       .  A
C1261      C1264   1.456       .  A
C1262      C1273   1.375       .  A
C1262      C1265   1.472       .  A
C1263      C1277   1.380       .  A
C1263      C1266   1.486       .  A
C1264      C1267   1.347       .  A
C1265      C1271   1.377       .  A
C1266      C1274   1.377       .  A
C1267      N1268   1.347       .  A
C1267      H1280   1.078       .  S
N1268      C1269   1.352       .  A
N1268      C1389   1.409       .  S
C1269      H1270   1.076       .  S
C1271      N1272   1.345       .  A
C1271      H1281   1.070       .  S
N1272      C1273   1.335       .  A
N1272      C1354   1.438       .  S
C1273      H1279   1.063       .  S
C1274      N1275   1.354       .  A
C1274      H1276   1.079       .  S
N1275      C1277   1.355       .  A
N1275      C1373   1.435       .  S
C1277      H1278   1.080       .  S
C1282      C1284   1.601   1_556  S
C1282      C1286   1.556   1_556  S
C1282      C1285   1.576   1_556  S
C1283      C1287   1.592       .  S
C1283      C1289   1.556       .  S
C1283      C1288   1.573       .  S
C1284      C1292   1.385   1_554  A
C1285      C1296   1.371   1_554  A
C1286      C1300   1.363   1_554  A
C1287      C1290   1.380       .  A
C1288      C1294   1.380       .  A
C1289      C1297   1.361       .  A
C1290      H1303   1.052       .  S
N1291      C1292   1.357   1_554  A
C1292      H1293   1.076       .  S
C1294      H1304   1.074       .  S
N1295      C1296   1.341   1_554  A
C1296      H1302   1.069       .  S
C1297      H1299   1.082       .  S
N1298      C1300   1.353   1_554  A
C1300      H1301   1.082       .  S
C1305      C1306   1.405       .  A
C1305      C1310   1.408       .  A
C1305      H1312   1.084       .  S
C1306      C1307   1.417       .  A
C1307      C1314   1.509       .  S
C1307      C1308   1.406       .  A
C1308      C1309   1.402       .  A
C1309      C1310   1.413       .  A
C1310      C1311   1.504       .  S
C1311      H1315   1.111       .  S
C1311      H1316   1.103       .  S
C1311      H1317   1.109       .  S
C1314      H1319   1.108       .  S
C1321      C1322   1.396       .  A
C1321      C1326   1.378       .  A
C1321      H1328   1.085       .  S
C1322      C1323   1.406       .  A
C1323      C1330   1.500       .  S
C1323      C1324   1.396       .  A
C1324      C1325   1.397       .  A
C1324      H1329   1.084       .  S
C1325      C1326   1.406       .  A
C1326      C1327   1.504       .  S
C1327      H1331   1.109       .  S
C1327      H1333   1.104       .  S
C1330      H1334   1.110   1_565  S
C1330      H1335   1.109       .  S
C1330      H1336   1.111       .  S
C1337      C1338   1.408       .  A
C1337      C1342   1.409       .  A
C1337      H1344   1.084       .  S
C1338      C1339   1.426       .  A
C1339      C1346   1.508       .  S
C1339      C1340   1.409       .  A
C1340      C1341   1.396       .  A
C1341      C1342   1.412       .  A
C1342      C1343   1.504       .  S
C1343      H1347   1.111       .  S
C1343      H1348   1.108       .  S
C1343      H1349   1.109       .  S
C1346      H1351   1.110       .  S
C1353      C1354   1.393       .  A
C1353      C1358   1.397       .  A
C1353      H1360   1.083       .  S
C1354      C1355   1.422       .  A
C1355      C1362   1.506       .  S
C1355      C1356   1.399       .  A
C1356      C1357   1.392       .  A
C1356      H1361   1.076       .  S
C1357      C1358   1.429       .  A
C1358      C1359   1.514       .  S
C1359      H1363   1.111       .  S
C1359      H1364   1.107       .  S
C1359      H1365   1.109       .  S
C1362      H1366   1.109       .  S
C1362      H1367   1.107       .  S
C1362      H1368   1.111       .  S
C1369      C1370   1.409       .  A
C1369      C1374   1.409       .  A
C1369      H1376   1.083       .  S
C1370      C1371   1.428       .  A
C1371      C1378   1.510       .  S
C1371      C1372   1.401       .  A
C1372      C1373   1.394       .  A
C1372      H1377   1.084       .  S
C1373      C1374   1.401       .  A
C1374      C1375   1.497       .  S
C1375      H1379   1.107       .  S
C1375      H1380   1.110       .  S
C1375      H1381   1.107       .  S
C1378      H1382   1.108       .  S
C1378      H1383   1.111       .  S
C1378      H1384   1.111       .  S
C1385      C1386   1.393       .  A
C1385      C1390   1.381       .  A
C1385      H1392   1.084       .  S
C1386      C1387   1.422       .  A
C1387      C1394   1.511       .  S
C1387      C1388   1.389       .  A
C1388      C1389   1.388       .  A
C1388      H1393   1.084       .  S
C1389      C1390   1.417       .  A
C1390      C1391   1.510       .  S
C1391      H1395   1.112       .  S
C1391      H1396   1.106       .  S
C1391      H1397   1.091       .  S
C1394      H1398   1.110       .  S
C1394      H1399   1.110       .  S
C1394      H1400   1.111       .  S
C1401      C1402   1.399       .  A
C1401      C1406   1.409       .  A
C1401      H1408   1.084       .  S
C1402      C1403   1.411       .  A
C1403      C1410   1.504       .  S
C1403      C1404   1.411       .  A
C1404      C1405   1.410       .  A
C1404      H1409   1.084       .  S
C1405      C1406   1.418       .  A
C1406      C1407   1.498       .  S
C1407      H1411   1.109       .  S
C1407      H1412   1.109       .  S
C1407      H1413   1.107       .  S
C1410      H1414   1.110       .  S
C1410      H1415   1.110       .  S
C1410      H1416   1.111       .  S
C1417      C1418   1.393       .  A
C1417      C1422   1.396       .  A
C1417      H1424   1.085       .  S
C1418      C1419   1.414       .  A
C1419      C1426   1.511       .  S
C1419      C1420   1.390       .  A
C1420      C1421   1.394       .  A
C1420      H1425   1.083       .  S
C1421      C1422   1.417       .  A
C1422      C1423   1.506       .  S
C1423      H1427   1.111       .  S
C1423      H1428   1.106       .  S
C1423      H1429   1.110       .  S
C1426      H1430   1.104       .  S
C1426      H1431   1.105       .  S
C1426      H1432   1.110       .  S
C1433      C1434   1.408       .  A
C1433      C1438   1.401       .  A
C1433      H1440   1.084       .  S
C1434      C1435   1.415       .  A
C1435      C1442   1.497       .  S
C1435      C1436   1.376       .  A
C1436      C1437   1.391       .  A
C1436      H1441   1.084       .  S
C1437      C1438   1.405       .  A
C1438      C1439   1.506       .  S
C1439      H1443   1.111       .  S
C1439      H1444   1.110       .  S
C1439      H1445   1.108       .  S
C1442      H1446   1.107       .  S
C1442      H1447   1.103       .  S
C1442      H1448   1.109       .  S
C1449      C1450   1.400       .  A
C1449      C1454   1.384       .  A
C1449      H1456   1.084       .  S
C1450      C1451   1.396       .  A
C1451      C1458   1.505       .  S
C1451      C1452   1.388       .  A
C1452      C1453   1.408       .  A
C1452      H1457   1.084       .  S
C1453      C1454   1.412       .  A
C1454      C1455   1.510       .  S
C1455      H1459   1.111       .  S
C1455      H1460   1.110       .  S
C1455      H1461   1.105       .  S
C1458      H1462   1.110       .  S
C1458      H1464   1.111       .  S
C1465      C1466   1.397       .  A
C1465      C1470   1.401       .  A
C1465      H1472   1.081       .  S
C1466      C1467   1.426       .  A
C1468      H1473   1.082       .  S
C1469      C1470   1.420       .  A
C1470      C1471   1.505       .  S
C1471      H1475   1.106       .  S
C1471      H1476   1.110   1_556  S
C1471      H1477   1.109       .  S
C1474      H1478   1.108       .  S
C1474      H1479   1.109       .  S
C1474      H1480   1.111       .  S
C1481      C1482   1.404       .  A
C1481      C1486   1.415       .  A
C1481      H1488   1.082       .  S
C1482      C1483   1.440       .  A
C1484      H1489   1.084       .  S
C1485      C1486   1.404       .  A
C1486      C1487   1.494       .  S
C1487      H1491   1.103       .  S
C1487      H1492   1.108       .  S
C1487      H1493   1.109       .  S
C1490      H1494   1.109       .  S
C1490      H1495   1.106       .  S
C1490      H1496   1.111       .  S
C1497      C1499   1.558   1_554  S
C1497      C1501   1.581   1_554  S
C1497      C1500   1.581   1_554  S
C1497      C1521   1.850       .  S
C1498      C1502   1.545       .  S
C1498      C1504   1.598       .  S
C1498      C1503   1.587       .  S
C1498      C1520   1.839       .  S
C1499      C1507   1.363   1_556  A
C1499      C1876   1.454       .  A
C1500      C1511   1.372   1_556  A
C1500      C1877   1.477       .  A
C1501      C1515   1.397   1_556  A
C1501      C1878   1.475       .  A
C1502      C1873   1.451       .  A
C1502      C1505   1.356       .  A
C1503      C1874   1.475       .  A
C1503      C1509   1.375       .  A
C1504      C1875   1.473       .  A
C1504      C1512   1.383       .  A
C1505      N1506   1.351       .  A
C1505      H1518   1.082       .  S
N1506      C1881   1.353       .  A
N1506      C1824   1.411       .  S
C1507      N1880   1.353   1_554  A
C1507      H1508   1.081       .  S
C1509      N1884   1.358       .  A
C1509      H1519   1.082       .  S
N1510      C1883   1.357       .  A
N1510      C1511   1.357   1_556  A
N1510      C2233   1.427       .  S
C1511      H1517   1.082       .  S
C1512      N1887   1.349       .  A
C1512      H1514   1.068       .  S
N1513      C1886   1.341       .  A
N1513      C1515   1.341   1_556  A
N1513      C2217   1.441       .  S
C1515      H1516   1.068       .  S
C1520      C1522   1.596       .  S
C1520      C1524   1.579       .  S
C1520      C1523   1.563       .  S
C1521      C1525   1.598       .  S
C1521      C1527   1.551       .  S
C1521      C1526   1.558       .  S
C1522      C1530   1.386       .  A
C1522      C1525   1.479       .  A
C1523      C1534   1.361       .  A
C1523      C1526   1.458       .  A
C1524      C1538   1.375       .  A
C1524      C1527   1.473       .  A
C1525      C1528   1.390       .  A
C1526      C1532   1.363       .  A
C1527      C1535   1.363       .  A
C1528      N1529   1.361       .  A
C1528      H1541   1.080       .  S
N1529      C1530   1.357       .  A
N1529      C1776   1.450       .  S
C1530      H1531   1.080       .  S
C1532      N1533   1.358       .  A
C1532      H1542   1.082       .  S
N1533      C1534   1.361       .  A
N1533      C1811   1.428       .  S
C1534      H1540   1.083       .  S
C1535      N1536   1.328       .  A
C1535      H1537   1.078       .  S
N1536      C1538   1.339       .  A
N1536      C1795   1.415       .  S
C1538      H1539   1.076       .  S
N1543      N1544   1.331       .  A
N1543      N1549   1.311       .  A
N1543     Mn1572   2.420       .  S
N1544      C1551   1.358       .  A
N1545      N1547   1.320       .  A
N1545      N1546   1.335       .  A
N1545     Mn1561   2.353       .  S
N1546      C1552   1.362       .  A
N1547      N1548   1.308       .  A
N1547     Mn1572   2.183       .  S
N1548      C1552   1.331       .  A
N1549      N1550   1.305       .  A
N1549     Mn1561   2.106       .  S
N1550      C1551   1.330       .  A
C1551      C1856   1.481       .  S
C1552      C1731   1.494       .  S
N1553      N1554   1.323       .  A
N1553     Mn1583   2.053   1_455  S
N1554      C2310   1.340       .  A
N1555      N1556   1.309       .  A
N1555      N1557   1.329       .  A
N1555     Mn2309   2.285       .  S
N1556      C1563   1.338       .  A
N1557      N1558   1.324       .  A
N1558      C1563   1.359       .  A
N1559      N1560   1.322       .  A
N1559     Mn1561   2.192   1_565  S
Mn1561     N2303   2.142   1_545  S
C1562      N2302   1.351       .  A
C1562      C2367   1.485       .  S
C1563      C1760   1.457       .  S
N1564      N1565   1.320       .  A
N1564      N1570   1.332       .  A
N1565      C1573   1.351       .  A
N1566      N1941   1.306       .  A
N1566     Mn1584   2.247       .  S
N1567      C1574   1.349   1_556  A
N1567      N1940   1.310       .  A
N1568      N1943   1.317       .  A
N1568     Mn1572   2.285       .  S
N1569      N1942   1.316   1_554  A
N1570      N1571   1.311       .  A
N1570     Mn2332   2.295   1_545  S
N1571      C1573   1.342       .  A
C1573      C1827   1.454       .  S
C1574      C2729   1.471       .  S
N1575      N1576   1.313       .  A
N1575      N1581   1.311       .  A
N1575     Mn1583   2.099       .  S
N1576      C1586   1.334       .  A
N1577      N1578   1.314       .  A
N1577      N1579   1.317       .  A
N1577     Mn1584   2.103       .  S
N1578      C1587   1.336       .  A
N1579      N1580   1.332       .  A
N1579     Mn1583   2.308       .  S
N1580      C1587   1.357       .  A
N1581      N1582   1.349       .  A
N1581     Mn1584   2.349       .  S
N1582      C1586   1.374       .  A
Mn1583    Cl2333   2.566       .  S
Mn1584     N2318   2.108       .  S
Mn1584    Cl2333   2.552       .  S
Cl1585    Mn2331   2.583   1_545  S
Cl1585    Mn2332   2.449   1_545  S
C1586      C1840   1.523       .  S
C1587      C1744   1.498       .  S
N1588      N1589   1.309       .  A
N1588      N1594   1.307       .  A
N1588     Mn1617   2.295       .  S
N1589      C1596   1.346       .  A
N1590      N1592   1.302       .  A
N1590      N1591   1.311       .  A
N1590     Mn1606   2.335       .  S
N1591      C1597   1.340       .  A
N1592      N1593   1.317       .  A
N1592     Mn1617   2.311       .  S
N1593      C1597   1.350       .  A
N1594      N1595   1.318       .  A
N1594     Mn1606   2.355       .  S
N1595      C1596   1.354       .  A
C1596      C1808   1.462       .  S
C1597      C1680   1.444       .  S
N1598      N1973   1.335       .  A
N1598     Mn1628   2.228       .  S
N1599      C2355   1.323       .  A
N1599      N1972   1.299       .  A
N1600      N1601   1.334       .  A
N1600      N1602   1.323       .  A
N1600     Mn2354   2.414       .  S
N1601      C1608   1.364       .  A
N1602      N1603   1.322       .  A
N1603      C1608   1.347       .  A
N1604      N1979   1.325       .  A
N1604     Mn1606   2.362       .  S
N1605      N1978   1.325       .  A
Mn1606     N2348   2.433   1_545  S
C1607      N2347   1.348       .  A
C1607      C2696   1.476       .  S
C1608      C1712   1.500       .  S
N1609      N1610   1.329       .  A
N1609      N1615   1.326       .  A
N1610      C1618   1.355       .  A
N1611      N1612   1.330   1_655  A
N1611     Mn1629   2.377       .  S
N1612      C1619   1.354       .  A
N1613      N1614   1.320   1_545  A
N1613     Mn1617   2.330       .  S
N1615      N1616   1.335       .  A
N1615     Mn2377   2.432   1_545  S
N1616      C1618   1.364       .  A
C1618      C1779   1.512       .  S
C1619      C2310   1.469       .  S
N1620      N1621   1.320       .  A
N1620      N1626   1.304       .  A
N1620     Mn1628   2.242       .  S
N1621      C1631   1.357       .  A
N1622      N1623   1.314       .  A
N1622      N1624   1.305       .  A
N1622     Mn1629   2.278       .  S
N1623      C1632   1.348       .  A
N1624      N1625   1.318       .  A
N1624     Mn1628   2.240       .  S
N1625      C1632   1.348       .  A
N1626      N1627   1.312       .  A
N1626     Mn1629   2.256       .  S
N1627      C1631   1.343       .  A
Mn1628    Cl2378   2.603       .  S
Mn1629     N2363   2.372       .  S
Mn1629    Cl2378   2.565       .  S
Cl1630    Mn2376   2.545       .  S
Cl1630    Mn2377   2.601       .  S
C1631      C1792   1.450       .  S
C1632      C1696   1.442       .  S
C1633      C1635   1.562       .  S
C1633      C1637   1.578       .  S
C1633      C1636   1.584       .  S
C1633      C1657   1.853       .  S
C1634      C1638   1.547       .  S
C1634      C1640   1.590       .  S
C1634      C1639   1.583       .  S
C1634      C1656   1.833       .  S
C1635      C1643   1.369       .  A
C1635      C1638   1.455       .  A
C1636      C1647   1.393       .  A
C1636      C1639   1.475       .  A
C1637      C1651   1.367       .  A
C1637      C1640   1.480       .  A
C1638      C1641   1.352       .  A
C1639      C1645   1.376       .  A
C1640      C1648   1.382       .  A
C1641      N1642   1.347       .  A
C1641      H1654   1.079       .  S
N1642      C1643   1.352       .  A
N1642      C1763   1.413       .  S
C1643      H1644   1.078       .  S
C1645      N1646   1.341       .  A
C1645      H1655   1.069       .  S
N1646      C1647   1.341       .  A
N1646      C1728   1.444       .  S
C1647      H1653   1.064       .  S
C1648      N1649   1.357       .  A
C1648      H1650   1.080       .  S
N1649      C1651   1.353       .  A
N1649      C1747   1.434       .  S
C1651      H1652   1.076       .  S
C1656      C1658   1.591       .  S
C1656      C1660   1.565       .  S
C1656      C1659   1.580       .  S
C1657      C1661   1.586       .  S
C1657      C1663   1.562       .  S
C1657      C1662   1.556       .  S
C1658      C1666   1.385       .  A
C1658      C2035   1.474       .  A
C1659      C1670   1.379       .  A
C1659      C2036   1.474       .  A
C1660      C1674   1.370       .  A
C1660      C2037   1.465       .  A
C1661      C2032   1.477       .  A
C1661      C1664   1.383       .  A
C1662      C2033   1.475       .  A
C1662      C1668   1.358       .  A
C1663      C2034   1.461       .  A
C1663      C1671   1.361       .  A
C1664      N2039   1.355       .  A
C1664      H1677   1.077       .  S
N1665      C2038   1.354       .  A
N1665      C1666   1.356       .  A
N1665      C2089   1.443       .  S
C1666      H1667   1.079       .  S
C1668      N2043   1.328       .  A
C1668      H1678   1.075       .  S
N1669      C2042   1.330       .  A
N1669      C1670   1.342       .  A
N1669      C2057   1.417       .  S
C1670      H1676   1.078       .  S
C1671      N2046   1.355       .  A
C1671      H1673   1.082       .  S
N1672      C2045   1.357       .  A
N1672      C1674   1.354       .  A
N1672      C2073   1.424       .  S
C1674      H1675   1.081       .  S
C1679      C1680   1.391       .  A
C1679      C1684   1.393       .  A
C1679      H1686   1.085       .  S
C1680      C1681   1.414       .  A
C1681      C1688   1.510       .  S
C1681      C1682   1.390       .  A
C1682      C1683   1.394       .  A
C1682      H2061   1.083       .  S
C1683      C1684   1.417       .  A
C1683      N2043   1.415       .  S
C1684      C1685   1.506       .  S
C1685      H1689   1.111       .  S
C1685      H1690   1.109   1_554  S
C1685      H1691   1.105       .  S
H1687      C2056   1.084       .  S
C1688      H2066   1.104       .  S
C1688      H1693   1.111       .  S
C1688      H2068   1.104       .  S
H1692      C2062   1.105       .  S
H1694      C2062   1.103       .  S
C1695      C1696   1.395       .  A
C1695      C1700   1.380       .  A
C1695      H1702   1.082       .  S
C1696      C1697   1.405       .  A
C1697      C1704   1.503   1_554  S
C1697      C1698   1.398       .  A
C1698      C1699   1.399       .  A
C1698      H1703   1.083       .  S
C1699      C1700   1.407       .  A
C1699      N2046   1.412       .  S
C1700      C1701   1.507       .  S
C1701      H1705   1.109       .  S
C1701      H2080   1.106       .  S
C1701      H1707   1.108       .  S
C1704      H1708   1.111       .  S
C1704      H1709   1.103   1_556  S
C1704      H1710   1.110       .  S
H1706      C2075   1.106       .  S
C1711      C1712   1.407       .  A
C1711      C1716   1.407       .  A
C1711      H1718   1.084       .  S
C1712      C1713   1.426       .  A
C1713      C1720   1.507       .  S
C1713      C1714   1.407       .  A
C1714      C1715   1.395       .  A
C1714      H2093   1.084       .  S
C1715      C1716   1.412       .  A
C1715      N2039   1.440       .  S
C1716      C1717   1.504       .  S
C1717      H1721   1.111       .  S
C1717      H1722   1.108       .  S
C1717      H1723   1.110       .  S
H1719      C2088   1.083       .  S
C1720      H2098   1.108   1_554  S
C1720      H1725   1.110       .  S
C1720      H2100   1.111       .  S
H1724      C2094   1.108       .  S
H1726      C2094   1.111       .  S
C1727      C1728   1.392       .  A
C1727      C1732   1.400       .  A
C1727      H1734   1.082       .  S
C1728      C1729   1.422       .  A
C1729      C1736   1.506       .  S
C1729      C1730   1.406       .  A
C1730      C1731   1.400       .  A
C1730      H1735   1.079       .  S
C1731      C1732   1.430       .  A
C1732      C1733   1.511       .  S
C1733      H1737   1.111       .  S
C1733      H1738   1.109       .  S
C1733      H1739   1.109       .  S
C1736      H1740   1.109       .  S
C1736      H1741   1.111       .  S
C1736      H1742   1.109       .  S
C1743      C1744   1.412       .  A
C1743      C1748   1.410       .  A
C1743      H1750   1.083       .  S
C1744      C1745   1.429       .  A
C1745      C1752   1.511       .  S
C1745      C1746   1.398       .  A
C1746      C1747   1.394       .  A
C1746      H1751   1.084       .  S
C1747      C1748   1.402       .  A
C1748      C1749   1.501       .  S
C1749      H1753   1.109       .  S
C1749      H1754   1.110       .  S
C1749      H1755   1.108       .  S
C1752      H1756   1.107       .  S
C1752      H1757   1.110       .  S
C1752      H1758   1.111       .  S
C1759      C1760   1.396       .  A
C1759      C1764   1.384       .  A
C1759      H1766   1.085       .  S
C1760      C1761   1.421       .  A
C1761      C1768   1.510       .  S
C1761      C1762   1.391       .  A
C1762      C1763   1.390       .  A
C1762      H1767   1.084       .  S
C1763      C1764   1.418       .  A
C1764      C1765   1.510       .  S
C1765      H1769   1.111       .  S
C1765      H1770   1.099       .  S
C1765      H1771   1.111       .  S
C1768      H1772   1.110       .  S
C1768      H1773   1.109       .  S
C1768      H1774   1.111       .  S
C1775      C1776   1.402       .  A
C1775      C1780   1.413       .  A
C1775      H1782   1.084       .  S
C1776      C1777   1.409       .  A
C1777      C1784   1.503       .  S
C1777      C1778   1.412       .  A
C1778      C1779   1.411       .  A
C1778      H1783   1.083       .  S
C1779      C1780   1.420       .  A
C1780      C1781   1.500       .  S
C1781      H1785   1.110       .  S
C1781      H1786   1.109       .  S
C1781      H1787   1.110       .  S
C1784      H1788   1.110       .  S
C1784      H1789   1.110       .  S
C1784      H1790   1.111       .  S
C1791      C1792   1.394       .  A
C1791      C1796   1.397       .  A
C1791      H1798   1.085       .  S
C1792      C1793   1.410       .  A
C1793      C1800   1.503       .  S
C1793      C1794   1.387       .  A
C1794      C1795   1.389       .  A
C1794      H1799   1.083       .  S
C1795      C1796   1.420       .  A
C1796      C1797   1.506       .  S
C1797      H1801   1.111       .  S
C1797      H1802   1.104       .  S
C1797      H1803   1.110       .  S
C1800      H1804   1.103       .  S
C1800      H1805   1.101       .  S
C1800      H1806   1.107       .  S
C1807      C1808   1.403       .  A
C1807      C1812   1.400       .  A
C1807      H1814   1.085       .  S
C1808      C1809   1.415       .  A
C1809      C1816   1.503       .  S
C1809      C1810   1.380       .  A
C1810      C1811   1.396       .  A
C1810      H1815   1.082       .  S
C1811      C1812   1.414       .  A
C1812      C1813   1.505       .  S
C1813      H1817   1.110       .  S
C1813      H1818   1.109       .  S
C1813      H1819   1.111       .  S
C1816      H1820   1.108       .  S
C1816      H1821   1.105       .  S
C1816      H1822   1.109       .  S
C1823      C1824   1.400       .  A
C1823      C1828   1.387       .  A
C1823      H1830   1.084       .  S
C1824      C1825   1.396       .  A
C1825      C1832   1.504       .  S
C1825      C1826   1.388       .  A
C1826      C1827   1.408       .  A
C1826      H1831   1.084       .  S
C1827      C1828   1.414       .  A
C1828      C1829   1.510       .  S
C1829      H1833   1.111       .  S
C1829      H1834   1.109       .  S
C1829      H1835   1.105       .  S
C1832      H1836   1.110       .  S
C1832      H2211   1.110       .  S
C1832      H1838   1.111       .  S
H1837      C2206   1.110       .  S
C1839      C1840   1.410       .  A
C1839      C1844   1.428       .  A
C1839      H1846   1.083       .  S
C1840      C1841   1.433       .  A
C1841      C2222   1.510       .  S
C1841      C2216   1.408       .  A
C1842      C2215   1.387       .  A
C1842      C2217   1.389       .  A
C1842      H1847   1.083       .  S
C1843      C2216   1.396       .  A
C1843      C1844   1.427       .  A
C1843      N1887   1.465       .  S
C1844      C1845   1.504       .  S
C1845      H1849   1.110       .  S
C1845      H1850   1.109       .  S
C1845      H1851   1.111       .  S
C1848      C2215   1.509       .  S
C1848      H1852   1.103       .  S
C1848      H1853   1.104       .  S
C1848      H1854   1.109       .  S
C1855      C1856   1.407       .  A
C1855      C1860   1.404       .  A
C1855      H1862   1.083       .  S
C1856      C1857   1.431       .  A
C1857      C2238   1.514       .  S
C1857      C2232   1.393       .  A
C1858      C2231   1.393       .  A
C1858      C2233   1.389       .  A
C1858      H1863   1.085       .  S
C1859      C2232   1.390       .  A
C1859      C1860   1.404       .  A
C1859      N1884   1.426       .  S
C1860      C1861   1.502       .  S
C1861      H1865   1.110       .  S
C1861      H1866   1.109       .  S
C1861      H1867   1.110       .  S
C1864      C2231   1.514       .  S
C1864      H1868   1.109       .  S
C1864      H1869   1.106       .  S
C1864      H1870   1.111       .  S
C1871      C1873   1.559       .  S
C1871      C1875   1.601       .  S
C1871      C1874   1.576       .  S
C1871      C1895   1.855       .  S
C1872      C1876   1.545       .  S
C1872      C1878   1.584       .  S
C1872      C1877   1.585       .  S
C1872      C1894   1.839       .  S
C1873      C1881   1.367       .  A
C1874      C1885   1.369       .  A
C1875      C1889   1.412       .  A
C1876      C1879   1.352       .  A
C1877      C1883   1.373       .  A
C1878      C1886   1.367       .  A
C1879      N1880   1.351       .  A
C1879      H1892   1.083       .  S
N1880      C2198   1.408       .  S
C1881      H1882   1.081       .  S
C1883      H1893   1.082       .  S
N1884      C1885   1.356       .  A
C1885      H1891   1.082       .  S
C1886      H1888   1.064       .  S
N1887      C1889   1.351       .  A
C1889      H1890   1.069       .  S
C1894      C1896   1.589       .  S
C1894      C1898   1.579       .  S
C1894      C1897   1.561       .  S
C1895      C1899   1.598       .  S
C1895      C1901   1.547       .  S
C1895      C1900   1.565       .  S
C1896      C1904   1.383       .  A
C1896      C1899   1.480       .  A
C1897      C1908   1.358       .  A
C1897      C1900   1.461       .  A
C1898      C1912   1.375       .  A
C1898      C1901   1.474       .  A
C1899      C1902   1.391       .  A
C1900      C1906   1.365       .  A
C1901      C1909   1.354       .  A
C1902      N1903   1.360       .  A
C1902      H1915   1.080       .  S
N1903      C1904   1.355       .  A
N1903      C2150   1.447       .  S
C1904      H1905   1.081       .  S
C1906      N1907   1.359       .  A
C1906      H1916   1.082       .  S
N1907      C1908   1.359       .  A
N1907      C2185   1.426       .  S
C1908      H1914   1.083       .  S
C1909      N1910   1.328       .  A
C1909      H1911   1.076       .  S
N1910      C1912   1.340       .  A
N1910      C2169   1.415       .  S
C1912      H1913   1.076       .  S
N1917      N1918   1.333       .  A
N1917      N1923   1.311       .  A
N1917     Mn1946   2.419       .  S
N1918      C1925   1.359       .  A
N1919      N1921   1.320       .  A
N1919      N1920   1.335       .  A
N1919     Mn1935   2.354       .  S
N1920      C1926   1.362       .  A
N1921      N1922   1.307       .  A
N1921     Mn1946   2.177       .  S
N1922      C1926   1.330       .  A
N1923      N1924   1.305       .  A
N1923     Mn1935   2.113       .  S
N1924      C1925   1.330       .  A
C1925      C2230   1.484       .  S
C1926      C2105   1.494       .  S
N1927      N1928   1.323       .  A
N1927     Mn1957   2.205   1_455  S
N1928      C2684   1.340       .  A
N1929      N1930   1.308       .  A
N1929      N1931   1.327       .  A
N1929     Mn2683   2.272       .  S
N1930      C1937   1.337       .  A
N1931      N1932   1.325       .  A
N1932      C1937   1.361       .  A
N1933      N1934   1.323       .  A
N1933     Mn1935   2.194   1_565  S
Mn1935     N2677   2.149   1_545  S
C1936      N2676   1.349       .  A
C1936      C2741   1.486       .  S
C1937      C2134   1.458       .  S
N1938      N1939   1.321       .  A
N1938      N1944   1.330       .  A
N1939      C1947   1.351       .  A
N1940     Mn1958   2.327       .  S
N1941      C1948   1.347       .  A
N1942     Mn1946   2.279       .  S
N1944      N1945   1.312       .  A
N1944     Mn2706   2.317   1_545  S
N1945      C1947   1.347       .  A
C1947      C2201   1.452       .  S
C1948      C2355   1.465       .  S
N1949      N1950   1.302       .  A
N1949      N1955   1.306       .  A
N1949     Mn1957   2.180       .  S
N1950      C1960   1.336       .  A
N1951      N1952   1.309       .  A
N1951      N1953   1.312       .  A
N1951     Mn1958   2.219       .  S
N1952      C1961   1.338       .  A
N1953      N1954   1.333       .  A
N1953     Mn1957   2.469       .  S
N1954      C1961   1.361       .  A
N1955      N1956   1.336       .  A
N1955     Mn1958   2.463       .  S
N1956      C1960   1.365       .  A
Mn1957    Cl2707   2.507       .  S
Mn1958     N2692   2.258       .  S
Mn1958    Cl2707   2.531       .  S
Cl1959    Mn2705   2.493       .  S
Cl1959    Mn2706   2.478       .  S
C1960      C2214   1.485       .  S
C1961      C2118   1.493       .  S
N1962      N1963   1.310       .  A
N1962      N1968   1.307       .  A
N1962     Mn1991   2.297       .  S
N1963      C1970   1.347       .  A
N1964      N1966   1.302       .  A
N1964      N1965   1.312       .  A
N1964     Mn1980   2.333       .  S
N1965      C1971   1.342       .  A
N1966      N1967   1.317       .  A
N1966     Mn1991   2.323       .  S
N1967      C1971   1.350       .  A
N1968      N1969   1.317       .  A
N1968     Mn1980   2.353       .  S
N1969      C1970   1.353       .  A
C1970      C2182   1.461       .  S
C1971      C2054   1.446       .  S
N1972     Mn2002   2.111       .  S
N1973      C2729   1.337       .  A
N1974      N1975   1.335       .  A
N1974      N1976   1.323       .  A
N1974     Mn2728   2.413       .  S
N1975      C1982   1.363       .  A
N1976      N1977   1.323       .  A
N1977      C1982   1.350       .  A
N1978     Mn1980   2.364       .  S
Mn1980     N2722   2.427   1_545  S
C1981      N2721   1.347       .  A
C1981      C2322   1.482       .  S
C1982      C2086   1.504       .  S
N1983      N1984   1.330       .  A
N1983      N1989   1.325       .  A
N1984      C1992   1.354       .  A
N1985      N1986   1.336       .  A
N1985     Mn2003   2.306   1_455  S
N1986      C1993   1.351       .  A
N1987      N1988   1.319   1_545  A
N1987     Mn1991   2.330       .  S
N1989      N1990   1.334       .  A
N1989     Mn2751   2.428   1_545  S
N1990      C1992   1.362       .  A
C1992      C2153   1.510       .  S
C1993      C2684   1.473       .  S
N1994      N1995   1.316       .  A
N1994      N2000   1.308       .  A
N1994     Mn2002   2.177       .  S
N1995      C2005   1.355       .  A
N1996      N1997   1.321       .  A
N1996      N1998   1.296       .  A
N1996     Mn2003   2.228       .  S
N1997      C2006   1.346       .  A
N1998      N1999   1.317       .  A
N1998     Mn2002   2.305       .  S
N1999      C2006   1.340       .  A
N2000      N2001   1.308       .  A
N2000     Mn2003   2.339       .  S
N2001      C2005   1.345       .  A
Mn2002    Cl2752   2.603   1_655  S
Mn2003     N2737   2.365       .  S
Mn2003    Cl2752   2.574   1_655  S
Cl2004    Mn2750   2.527   1_545  S
Cl2004    Mn2751   2.605   1_545  S
C2005      C2166   1.441       .  S
C2006      C2070   1.460       .  S
C2007      C2009   1.565       .  S
C2007      C2011   1.582       .  S
C2007      C2010   1.588       .  S
C2007      C2031   1.863       .  S
C2008      C2012   1.545       .  S
C2008      C2014   1.585       .  S
C2008      C2013   1.580       .  S
C2008      C2030   1.832       .  S
C2009      C2017   1.368       .  A
C2009      C2012   1.457       .  A
C2010      C2021   1.394       .  A
C2010      C2013   1.477       .  A
C2011      C2025   1.367       .  A
C2011      C2014   1.479       .  A
C2012      C2015   1.351       .  A
C2013      C2019   1.374       .  A
C2014      C2022   1.380       .  A
C2015      N2016   1.347       .  A
C2015      H2028   1.079       .  S
N2016      C2017   1.352       .  A
N2016      C2137   1.412       .  S
C2017      H2018   1.077       .  S
C2019      N2020   1.340       .  A
C2019      H2029   1.069       .  S
N2020      C2021   1.342       .  A
N2020      C2102   1.441       .  S
C2021      H2027   1.067       .  S
C2022      N2023   1.357       .  A
C2022      H2024   1.081       .  S
N2023      C2025   1.355       .  A
N2023      C2121   1.432       .  S
C2025      H2026   1.075       .  S
C2030      C2032   1.596   1_556  S
C2030      C2034   1.554   1_556  S
C2030      C2033   1.577   1_556  S
C2031      C2035   1.589       .  S
C2031      C2037   1.569       .  S
C2031      C2036   1.557       .  S
C2032      C2040   1.383   1_554  A
C2033      C2044   1.379   1_554  A
C2034      C2048   1.362   1_554  A
C2035      C2038   1.380       .  A
C2036      C2042   1.359       .  A
C2037      C2045   1.365       .  A
C2038      H2051   1.068       .  S
N2039      C2040   1.355   1_554  A
C2040      H2041   1.075       .  S
C2042      H2052   1.075       .  S
N2043      C2044   1.341   1_554  A
C2044      H2050   1.078       .  S
C2045      H2047   1.082       .  S
N2046      C2048   1.350   1_554  A
C2048      H2049   1.082       .  S
C2053      C2054   1.391       .  A
C2053      C2058   1.393       .  A
C2053      H2060   1.085       .  S
C2054      C2055   1.414       .  A
C2055      C2062   1.510       .  S
C2055      C2056   1.391       .  A
C2056      C2057   1.394       .  A
C2057      C2058   1.418       .  A
C2058      C2059   1.506       .  S
C2059      H2063   1.111       .  S
C2059      H2064   1.109       .  S
C2059      H2065   1.105       .  S
C2062      H2067   1.111       .  S
C2069      C2070   1.394       .  A
C2069      C2074   1.387       .  A
C2069      H2076   1.078       .  S
C2070      C2071   1.413       .  A
C2071      C2078   1.504       .  S
C2071      C2072   1.405       .  A
C2072      C2073   1.401       .  A
C2072      H2077   1.083       .  S
C2073      C2074   1.407       .  A
C2074      C2075   1.504       .  S
C2075      H2079   1.105       .  S
C2075      H2081   1.106       .  S
C2078      H2082   1.111       .  S
C2078      H2083   1.103       .  S
C2078      H2084   1.111       .  S
C2085      C2086   1.408       .  A
C2085      C2090   1.409       .  A
C2085      H2092   1.083       .  S
C2086      C2087   1.426       .  A
C2087      C2094   1.507       .  S
C2087      C2088   1.408       .  A
C2088      C2089   1.396       .  A
C2089      C2090   1.412       .  A
C2090      C2091   1.504       .  S
C2091      H2095   1.111       .  S
C2091      H2096   1.109       .  S
C2091      H2097   1.110       .  S
C2094      H2099   1.110       .  S
C2101      C2102   1.391       .  A
C2101      C2106   1.400       .  A
C2101      H2108   1.083       .  S
C2102      C2103   1.419       .  A
C2103      C2110   1.505       .  S
C2103      C2104   1.405       .  A
C2104      C2105   1.401       .  A
C2104      H2109   1.077       .  S
C2105      C2106   1.431       .  A
C2106      C2107   1.512       .  S
C2107      H2111   1.111       .  S
C2107      H2112   1.111       .  S
C2107      H2113   1.110       .  S
C2110      H2114   1.109       .  S
C2110      H2115   1.111       .  S
C2110      H2116   1.108       .  S
C2117      C2118   1.410       .  A
C2117      C2122   1.411       .  A
C2117      H2124   1.083       .  S
C2118      C2119   1.429       .  A
C2119      C2126   1.513       .  S
C2119      C2120   1.396       .  A
C2120      C2121   1.393       .  A
C2120      H2125   1.084       .  S
C2121      C2122   1.404       .  A
C2122      C2123   1.501       .  S
C2123      H2127   1.109       .  S
C2123      H2128   1.110       .  S
C2123      H2129   1.108       .  S
C2126      H2130   1.107       .  S
C2126      H2131   1.110       .  S
C2126      H2132   1.111       .  S
C2133      C2134   1.395       .  A
C2133      C2138   1.385       .  A
C2133      H2140   1.084       .  S
C2134      C2135   1.423       .  A
C2135      C2142   1.510       .  S
C2135      C2136   1.391       .  A
C2136      C2137   1.387       .  A
C2136      H2141   1.084       .  S
C2137      C2138   1.417       .  A
C2138      C2139   1.509       .  S
C2139      H2143   1.111       .  S
C2139      H2144   1.104       .  S
C2139      H2145   1.098       .  S
C2142      H2146   1.111       .  S
C2142      H2147   1.110       .  S
C2142      H2148   1.111       .  S
C2149      C2150   1.401       .  A
C2149      C2154   1.412       .  A
C2149      H2156   1.084       .  S
C2150      C2151   1.408       .  A
C2151      C2158   1.503       .  S
C2151      C2152   1.412       .  A
C2152      C2153   1.412       .  A
C2152      H2157   1.083       .  S
C2153      C2154   1.421       .  A
C2154      C2155   1.501       .  S
C2155      H2159   1.110       .  S
C2155      H2160   1.109       .  S
C2155      H2161   1.110       .  S
C2158      H2162   1.110       .  S
C2158      H2163   1.110       .  S
C2158      H2164   1.111       .  S
C2165      C2166   1.387       .  A
C2165      C2170   1.391       .  A
C2165      H2172   1.085       .  S
C2166      C2167   1.408       .  A
C2167      C2174   1.500       .  S
C2167      C2168   1.387       .  A
C2168      C2169   1.389       .  A
C2168      H2173   1.084       .  S
C2169      C2170   1.424       .  A
C2170      C2171   1.503       .  S
C2171      H2175   1.111       .  S
C2171      H2176   1.095       .  S
C2171      H2177   1.110       .  S
C2174      H2178   1.106       .  S
C2174      H2179   1.104       .  S
C2174      H2180   1.103       .  S
C2181      C2182   1.403       .  A
C2181      C2186   1.399       .  A
C2181      H2188   1.084       .  S
C2182      C2183   1.414       .  A
C2183      C2190   1.503       .  S
C2183      C2184   1.380       .  A
C2184      C2185   1.396       .  A
C2184      H2189   1.083       .  S
C2185      C2186   1.412       .  A
C2186      C2187   1.505       .  S
C2187      H2191   1.110       .  S
C2187      H2192   1.109       .  S
C2187      H2193   1.111       .  S
C2190      H2194   1.108       .  S
C2190      H2195   1.106       .  S
C2190      H2196   1.110       .  S
C2197      C2198   1.400       .  A
C2197      C2202   1.387       .  A
C2197      H2204   1.084       .  S
C2198      C2199   1.395       .  A
C2199      C2206   1.505       .  S
C2199      C2200   1.385       .  A
C2200      C2201   1.407       .  A
C2200      H2205   1.084       .  S
C2201      C2202   1.416       .  A
C2202      C2203   1.511       .  S
C2203      H2207   1.111       .  S
C2203      H2208   1.109       .  S
C2203      H2209   1.103       .  S
C2206      H2210   1.110       .  S
C2206      H2212   1.111       .  S
C2213      C2214   1.403       .  A
C2213      C2218   1.411       .  A
C2213      H2220   1.084       .  S
C2214      C2215   1.426       .  A
C2216      H2221   1.083       .  S
C2217      C2218   1.423       .  A
C2218      C2219   1.504       .  S
C2219      H2223   1.110       .  S
C2219      H2224   1.110   1_556  S
C2219      H2225   1.109       .  S
C2222      H2226   1.109       .  S
C2222      H2227   1.108       .  S
C2222      H2228   1.111       .  S
C2229      C2230   1.407       .  A
C2229      C2234   1.406       .  A
C2229      H2236   1.083       .  S
C2230      C2231   1.432       .  A
C2232      H2237   1.085       .  S
C2233      C2234   1.404       .  A
C2234      C2235   1.502       .  S
C2235      H2239   1.109       .  S
C2235      H2240   1.109       .  S
C2235      H2241   1.110       .  S
C2238      H2242   1.109       .  S
C2238      H2243   1.104       .  S
C2238      H2244   1.111       .  S
C2245      C2247   1.567   1_554  S
C2245      C2249   1.570   1_554  S
C2245      C2248   1.581   1_554  S
C2245      C2269   1.850       .  S
C2246      C2250   1.545       .  S
C2246      C2252   1.581       .  S
C2246      C2251   1.596       .  S
C2246      C2268   1.840       .  S
C2247      C2255   1.371       .  A
C2247      C2624   1.454       .  A
C2248      C2259   1.375       .  A
C2248      C2625   1.480       .  A
C2249      C2263   1.381       .  A
C2249      C2626   1.472       .  A
C2250      C2621   1.449       .  A
C2250      C2253   1.348       .  A
C2251      C2622   1.480       .  A
C2251      C2257   1.380       .  A
C2252      C2623   1.477       .  A
C2252      C2260   1.371       .  A
C2253      N2254   1.357       .  A
C2253      H2266   1.082       .  S
N2254      C2629   1.358       .  A
N2254      C2572   1.420       .  S
C2255      N2628   1.358       .  A
C2255      H2256   1.081   1_556  S
C2257      N2632   1.360       .  A
C2257      H2267   1.082       .  S
N2258      C2631   1.364       .  A
N2258      C2259   1.356       .  A
N2258      C2981   1.442       .  S
C2259      H2265   1.082   1_556  S
C2260      N2635   1.342       .  A
C2260      H2262   1.070       .  S
N2261      C2634   1.342       .  A
N2261      C2263   1.337       .  A
N2261      C2965   1.436       .  S
C2263      H2264   1.063   1_556  S
C2268      C2270   1.598       .  S
C2268      C2272   1.582       .  S
C2268      C2271   1.548       .  S
C2269      C2273   1.580       .  S
C2269      C2275   1.564       .  S
C2269      C2274   1.564       .  S
C2270      C2278   1.387       .  A
C2270      C2273   1.478       .  A
C2271      C2282   1.350       .  A
C2271      C2274   1.458       .  A
C2272      C2286   1.376       .  A
C2272      C2275   1.475       .  A
C2273      C2276   1.375       .  A
C2274      C2280   1.367       .  A
C2275      C2283   1.370       .  A
C2276      N2277   1.353       .  A
C2276      H2289   1.080       .  S
N2277      C2278   1.361       .  A
N2277      C2524   1.440       .  S
C2278      H2279   1.082       .  S
C2280      N2281   1.359       .  A
C2280      H2290   1.082       .  S
N2281      C2282   1.354       .  A
N2281      C2559   1.422       .  S
C2282      H2288   1.082       .  S
C2283      N2284   1.331       .  A
C2283      H2285   1.077       .  S
N2284      C2286   1.341       .  A
N2284      C2543   1.420       .  S
C2286      H2287   1.075       .  S
N2291      N2292   1.331       .  A
N2291      N2297   1.313       .  A
N2291     Mn2320   2.456       .  S
N2292      C2299   1.358       .  A
N2293      N2295   1.315       .  A
N2293      N2294   1.326       .  A
N2293     Mn2309   2.430       .  S
N2294      C2300   1.357       .  A
N2295      N2296   1.303       .  A
N2295     Mn2320   2.220       .  S
N2296      C2300   1.333       .  A
N2297      N2298   1.308       .  A
N2297     Mn2309   2.222       .  S
N2298      C2299   1.337       .  A
C2299      C2604   1.488       .  S
C2300      C2479   1.471       .  S
N2301      N2302   1.319       .  A
N2301     Mn2331   2.298   1_455  S
N2303      N2304   1.307       .  A
N2303      N2305   1.329       .  A
N2304      C2311   1.335       .  A
N2305      N2306   1.323       .  A
N2306      C2311   1.357       .  A
N2307      N2308   1.319       .  A
N2307     Mn2309   2.343       .  S
C2311      C2508   1.457       .  S
N2312      N2313   1.322       .  A
N2312      N2318   1.321       .  A
N2313      C2321   1.354       .  A
N2314      N2689   1.323       .  A
N2314     Mn2332   2.317   1_545  S
N2315      C2322   1.359       .  A
N2315      N2688   1.321   1_554  A
N2316      N2691   1.318       .  A
N2316     Mn2320   2.303       .  S
N2317      N2690   1.320   1_554  A
N2318      N2319   1.305       .  A
N2319      C2321   1.334       .  A
C2321      C2575   1.450       .  S
N2323      N2324   1.305       .  A
N2323      N2329   1.316       .  A
N2323     Mn2331   2.228       .  S
N2324      C2334   1.336       .  A
N2325      N2326   1.312       .  A
N2325      N2327   1.315       .  A
N2325     Mn2332   2.233       .  S
N2326      C2335   1.339       .  A
N2327      N2328   1.334       .  A
N2327     Mn2331   2.479       .  S
N2328      C2335   1.359       .  A
N2329      N2330   1.329       .  A
N2329     Mn2332   2.441       .  S
N2330      C2334   1.359       .  A
C2334      C2588   1.477       .  S
C2335      C2492   1.498       .  S
N2336      N2337   1.309       .  A
N2336      N2342   1.307       .  A
N2336     Mn2365   2.289       .  S
N2337      C2344   1.347       .  A
N2338      N2340   1.303       .  A
N2338      N2339   1.312       .  A
N2338     Mn2354   2.337       .  S
N2339      C2345   1.341       .  A
N2340      N2341   1.318       .  A
N2340     Mn2365   2.326       .  S
N2341      C2345   1.350       .  A
N2342      N2343   1.315       .  A
N2342     Mn2354   2.337       .  S
N2343      C2344   1.352       .  A
C2344      C2556   1.457       .  S
C2345      C2428   1.448       .  S
N2346      N2721   1.320       .  A
N2346     Mn2376   2.325   1_545  S
N2347      N2720   1.321       .  A
N2348      N2349   1.337       .  A
N2348      N2350   1.323       .  A
N2349      C2356   1.365       .  A
N2350      N2351   1.323       .  A
N2351      C2356   1.347       .  A
N2352      N2727   1.322       .  A
N2352     Mn2354   2.352       .  S
N2353      N2726   1.323       .  A
C2356      C2460   1.502       .  S
N2357      N2358   1.326       .  A
N2357      N2363   1.311       .  A
N2358      C2366   1.352       .  A
N2359      N2360   1.324       .  A
N2359     Mn2377   2.356   1_455  S
N2360      C2367   1.356       .  A
N2361      N2362   1.320       .  A
N2361     Mn2365   2.333       .  S
N2363      N2364   1.331       .  A
N2364      C2366   1.362       .  A
C2366      C2527   1.500       .  S
N2368      N2369   1.317       .  A
N2368      N2374   1.304       .  A
N2368     Mn2376   2.321       .  S
N2369      C2379   1.347       .  A
N2370      N2371   1.315       .  A
N2370      N2372   1.307       .  A
N2370     Mn2377   2.346       .  S
N2371      C2380   1.353       .  A
N2372      N2373   1.308       .  A
N2372     Mn2376   2.282       .  S
N2373      C2380   1.348       .  A
N2374      N2375   1.312       .  A
N2374     Mn2377   2.339       .  S
N2375      C2379   1.341       .  A
C2379      C2540   1.447       .  S
C2380      C2444   1.441       .  S
C2381      C2383   1.567       .  S
C2381      C2385   1.584       .  S
C2381      C2384   1.576       .  S
C2381      C2405   1.854       .  S
C2382      C2386   1.550       .  S
C2382      C2388   1.593       .  S
C2382      C2387   1.573       .  S
C2382      C2404   1.840       .  S
C2383      C2391   1.368       .  A
C2383      C2386   1.461       .  A
C2384      C2395   1.388       .  A
C2384      C2387   1.472       .  A
C2385      C2399   1.379       .  A
C2385      C2388   1.480       .  A
C2386      C2389   1.351       .  A
C2387      C2393   1.361       .  A
C2388      C2396   1.377       .  A
C2389      N2390   1.347       .  A
C2389      H2402   1.078       .  S
N2390      C2391   1.351       .  A
N2390      C2511   1.413       .  S
C2391      H2392   1.076       .  S
C2393      N2394   1.338       .  A
C2393      H2403   1.069       .  S
N2394      C2395   1.339       .  A
N2394      C2476   1.433       .  S
C2395      H2401   1.067       .  S
C2396      N2397   1.358       .  A
C2396      H2398   1.077       .  S
N2397      C2399   1.356       .  A
N2397      C2495   1.438       .  S
C2399      H2400   1.081       .  S
C2404      C2406   1.599       .  S
C2404      C2408   1.547       .  S
C2404      C2407   1.587       .  S
C2405      C2409   1.587       .  S
C2405      C2411   1.555       .  S
C2405      C2410   1.559       .  S
C2406      C2414   1.384       .  A
C2406      C2783   1.473       .  A
C2407      C2418   1.379       .  A
C2407      C2784   1.478       .  A
C2408      C2422   1.355       .  A
C2408      C2785   1.462       .  A
C2409      C2780   1.473   1_554  A
C2409      C2412   1.376       .  A
C2410      C2781   1.478   1_554  A
C2410      C2416   1.362       .  A
C2411      C2782   1.460   1_554  A
C2411      C2419   1.358       .  A
C2412      N2787   1.354       .  A
C2412      H2425   1.064       .  S
N2413      C2786   1.355       .  A
N2413      C2414   1.358       .  A
N2413      C2837   1.441       .  S
C2414      H2415   1.075       .  S
C2416      N2791   1.328       .  A
C2416      H2426   1.073       .  S
N2417      C2790   1.327       .  A
N2417      C2418   1.341       .  A
N2417      C2805   1.416       .  S
C2418      H2424   1.077       .  S
C2419      N2794   1.351       .  A
C2419      H2421   1.083       .  S
N2420      C2793   1.353       .  A
N2420      C2422   1.349       .  A
N2420      C2821   1.412       .  S
C2422      H2423   1.082       .  S
C2427      C2428   1.390       .  A
C2427      C2432   1.396       .  A
C2427      H2434   1.085       .  S
C2428      C2429   1.413       .  A
C2429      C2436   1.510       .  S
C2429      C2430   1.393       .  A
C2430      C2431   1.396       .  A
C2430      H2809   1.084       .  S
C2431      C2432   1.419       .  A
C2431      N2791   1.421       .  S
C2432      C2433   1.507       .  S
C2433      H2437   1.111       .  S
C2433      H2438   1.099   1_554  S
C2433      H2439   1.108       .  S
H2435      C2804   1.084       .  S
C2436      H2814   1.104       .  S
C2436      H2441   1.111       .  S
C2436      H2816   1.103       .  S
H2440      C2810   1.103       .  S
H2442      C2810   1.102       .  S
C2443      C2444   1.397       .  A
C2443      C2448   1.377       .  A
C2443      H2450   1.084       .  S
C2444      C2445   1.405       .  A
C2445      C2452   1.499       .  S
C2445      C2446   1.392       .  A
C2446      C2447   1.396       .  A
C2446      H2451   1.084       .  S
C2447      C2448   1.406       .  A
C2447      N2794   1.409       .  S
C2448      C2449   1.500   1_554  S
C2449      H2453   1.107       .  S
C2449      H2828   1.101       .  S
C2449      H2455   1.110   1_556  S
C2452      H2456   1.110   1_565  S
C2452      H2457   1.107       .  S
C2452      H2458   1.111       .  S
H2454      C2823   1.100       .  S
C2459      C2460   1.407       .  A
C2459      C2464   1.408       .  A
C2459      H2466   1.083       .  S
C2460      C2461   1.426       .  A
C2461      C2468   1.508       .  S
C2461      C2462   1.408       .  A
C2462      C2463   1.395       .  A
C2462      H2841   1.084       .  S
C2463      C2464   1.412       .  A
C2463      N2787   1.441       .  S
C2464      C2465   1.504       .  S
C2465      H2469   1.111       .  S
C2465      H2470   1.108   1_554  S
C2465      H2471   1.109       .  S
H2467      C2836   1.084       .  S
C2468      H2846   1.109   1_554  S
C2468      H2473   1.110       .  S
C2468      H2848   1.111       .  S
H2472      C2842   1.109       .  S
H2474      C2842   1.111       .  S
C2475      C2476   1.391       .  A
C2475      C2480   1.390       .  A
C2475      H2482   1.081       .  S
C2476      C2477   1.420       .  A
C2477      C2484   1.506       .  S
C2477      C2478   1.398       .  A
C2478      C2479   1.397       .  A
C2478      H2483   1.078       .  S
C2479      C2480   1.424       .  A
C2480      C2481   1.513       .  S
C2481      H2485   1.110       .  S
C2481      H2486   1.110       .  S
C2481      H2487   1.109       .  S
C2484      H2488   1.109       .  S
C2484      H2489   1.111       .  S
C2484      H2490   1.109       .  S
C2491      C2492   1.411       .  A
C2491      C2496   1.413       .  A
C2491      H2498   1.083       .  S
C2492      C2493   1.428       .  A
C2493      C2500   1.509       .  S
C2493      C2494   1.399       .  A
C2494      C2495   1.394       .  A
C2494      H2499   1.084       .  S
C2495      C2496   1.406       .  A
C2496      C2497   1.500       .  S
C2497      H2501   1.109       .  S
C2497      H2502   1.110       .  S
C2497      H2503   1.109       .  S
C2500      H2504   1.105       .  S
C2500      H2505   1.111       .  S
C2500      H2506   1.111       .  S
C2507      C2508   1.395       .  A
C2507      C2512   1.385       .  A
C2507      H2514   1.084       .  S
C2508      C2509   1.424       .  A
C2509      C2516   1.511       .  S
C2509      C2510   1.391       .  A
C2510      C2511   1.387       .  A
C2510      H2515   1.084       .  S
C2511      C2512   1.416       .  A
C2512      C2513   1.508       .  S
C2513      H2517   1.111       .  S
C2513      H2518   1.104       .  S
C2513      H2519   1.097       .  S
C2516      H2520   1.111       .  S
C2516      H2521   1.110   1_565  S
C2516      H2522   1.111       .  S
C2523      C2524   1.402       .  A
C2523      C2528   1.409       .  A
C2523      H2530   1.084       .  S
C2524      C2525   1.405       .  A
C2525      C2532   1.504       .  S
C2525      C2526   1.406       .  A
C2526      C2527   1.412       .  A
C2526      H2531   1.084       .  S
C2527      C2528   1.419       .  A
C2528      C2529   1.504       .  S
C2529      H2533   1.110       .  S
C2529      H2534   1.108       .  S
C2529      H2535   1.109       .  S
C2532      H2536   1.110       .  S
C2532      H2537   1.110       .  S
C2532      H2538   1.111       .  S
C2539      C2540   1.391       .  A
C2539      C2544   1.394       .  A
C2539      H2546   1.085       .  S
C2540      C2541   1.414       .  A
C2541      C2548   1.511       .  S
C2541      C2542   1.392       .  A
C2542      C2543   1.394       .  A
C2542      H2547   1.083       .  S
C2543      C2544   1.418       .  A
C2544      C2545   1.506       .  S
C2545      H2549   1.110       .  S
C2545      H2550   1.105       .  S
C2545      H2551   1.110       .  S
C2548      H2552   1.104       .  S
C2548      H2553   1.104       .  S
C2548      H2554   1.111       .  S
C2555      C2556   1.404       .  A
C2555      C2560   1.398       .  A
C2555      H2562   1.085       .  S
C2556      C2557   1.414       .  A
C2557      C2564   1.503       .  S
C2557      C2558   1.375       .  A
C2558      C2559   1.395       .  A
C2558      H2563   1.083       .  S
C2559      C2560   1.409       .  A
C2560      C2561   1.505       .  S
C2561      H2565   1.110       .  S
C2561      H2566   1.109       .  S
C2561      H2567   1.110       .  S
C2564      H2568   1.109       .  S
C2564      H2569   1.104       .  S
C2564      H2570   1.109       .  S
C2571      C2572   1.401       .  A
C2571      C2576   1.387       .  A
C2571      H2578   1.078       .  S
C2572      C2573   1.404       .  A
C2573      C2580   1.507       .  S
C2573      C2574   1.390       .  A
C2574      C2575   1.406       .  A
C2574      H2579   1.085       .  S
C2575      C2576   1.412       .  A
C2576      C2577   1.507       .  S
C2577      H2581   1.111       .  S
C2577      H2582   1.110       .  S
C2577      H2583   1.101       .  S
C2580      H2584   1.109       .  S
C2580      H2959   1.110       .  S
C2580      H2586   1.111       .  S
H2585      C2954   1.110       .  S
C2587      C2588   1.399       .  A
C2587      C2592   1.403       .  A
C2587      H2594   1.081       .  S
C2588      C2589   1.425       .  A
C2589      C2970   1.512       .  S
C2589      C2964   1.390       .  A
C2590      C2963   1.393       .  A
C2590      C2965   1.392       .  A
C2590      H2595   1.082       .  S
C2591      C2964   1.390       .  A
C2591      C2592   1.422       .  A
C2591      N2635   1.437       .  S
C2592      C2593   1.506       .  S
C2593      H2597   1.110       .  S
C2593      H2598   1.110       .  S
C2593      H2599   1.109       .  S
C2596      C2963   1.513       .  S
C2596      H2600   1.109       .  S
C2596      H2601   1.109       .  S
C2596      H2602   1.111       .  S
C2603      C2604   1.409       .  A
C2603      C2608   1.409       .  A
C2603      H2610   1.083       .  S
C2604      C2605   1.428       .  A
C2605      C2986   1.510       .  S
C2605      C2980   1.394       .  A
C2606      C2979   1.402       .  A
C2606      C2981   1.392       .  A
C2606      H2611   1.084       .  S
C2607      C2980   1.391       .  A
C2607      C2608   1.405       .  A
C2607      N2632   1.430       .  S
C2608      C2609   1.501       .  S
C2609      H2613   1.109       .  S
C2609      H2614   1.108       .  S
C2609      H2615   1.110       .  S
C2612      C2979   1.510       .  S
C2612      H2616   1.108       .  S
C2612      H2617   1.104   1_556  S
C2612      H2618   1.111       .  S
C2619      C2621   1.555       .  S
C2619      C2623   1.576       .  S
C2619      C2622   1.580       .  S
C2619      C2643   1.849       .  S
C2620      C2624   1.546       .  S
C2620      C2626   1.582       .  S
C2620      C2625   1.606       .  S
C2620      C2642   1.843       .  S
C2621      C2629   1.366       .  A
C2622      C2633   1.369       .  A
C2623      C2637   1.390       .  A
C2624      C2627   1.350       .  A
C2625      C2631   1.390       .  A
C2626      C2634   1.373       .  A
C2627      N2628   1.352       .  A
C2627      H2640   1.082       .  S
N2628      C2946   1.416       .  S
C2629      H2630   1.082       .  S
C2631      H2641   1.082       .  S
N2632      C2633   1.355       .  A
C2633      H2639   1.082       .  S
C2634      H2636   1.073       .  S
N2635      C2637   1.337       .  A
C2637      H2638   1.068       .  S
C2642      C2644   1.620       .  S
C2642      C2646   1.583       .  S
C2642      C2645   1.545       .  S
C2643      C2647   1.595       .  S
C2643      C2649   1.555       .  S
C2643      C2648   1.566       .  S
C2644      C2652   1.405       .  A
C2644      C2647   1.477       .  A
C2645      C2656   1.350       .  A
C2645      C2648   1.459       .  A
C2646      C2660   1.378       .  A
C2646      C2649   1.466       .  A
C2647      C2650   1.390       .  A
C2648      C2654   1.369       .  A
C2649      C2657   1.365       .  A
C2650      N2651   1.363       .  A
C2650      H2663   1.078       .  S
N2651      C2652   1.370       .  A
N2651      C2898   1.469       .  S
C2652      H2653   1.081       .  S
C2654      N2655   1.359       .  A
C2654      H2664   1.082       .  S
N2655      C2656   1.353       .  A
N2655      C2933   1.422       .  S
C2656      H2662   1.082       .  S
C2657      N2658   1.331       .  A
C2657      H2659   1.077       .  S
N2658      C2660   1.343       .  A
N2658      C2917   1.419       .  S
C2660      H2661   1.076       .  S
N2665      N2666   1.339       .  A
N2665      N2671   1.320       .  A
N2665     Mn2694   2.366       .  S
N2666      C2673   1.364       .  A
N2667      N2669   1.315       .  A
N2667      N2668   1.328       .  A
N2667     Mn2683   2.379       .  S
N2668      C2674   1.357       .  A
N2669      N2670   1.304       .  A
N2669     Mn2694   2.135       .  S
N2670      C2674   1.332       .  A
N2671      N2672   1.312       .  A
N2671     Mn2683   2.205       .  S
N2672      C2673   1.336       .  A
C2673      C2978   1.509       .  S
C2674      C2853   1.476       .  S
N2675      N2676   1.318       .  A
N2675     Mn2705   2.306   1_455  S
N2677      N2678   1.309       .  A
N2677      N2679   1.330       .  A
N2678      C2685   1.337       .  A
N2679      N2680   1.323       .  A
N2680      C2685   1.356       .  A
N2681      N2682   1.319       .  A
N2681     Mn2683   2.337       .  S
C2685      C2882   1.459       .  S
N2686      N2687   1.321       .  A
N2686      N2692   1.326       .  A
N2687      C2695   1.353       .  A
N2688     Mn2706   2.351   1_545  S
N2689      C2696   1.354       .  A
N2690     Mn2694   2.153       .  S
N2692      N2693   1.309       .  A
N2693      C2695   1.339       .  A
C2695      C2949   1.465       .  S
N2697      N2698   1.304       .  A
N2697      N2703   1.319       .  A
N2697     Mn2705   2.231       .  S
N2698      C2708   1.334       .  A
N2699      N2700   1.311       .  A
N2699      N2701   1.317       .  A
N2699     Mn2706   2.233       .  S
N2700      C2709   1.338       .  A
N2701      N2702   1.333       .  A
N2701     Mn2705   2.469       .  S
N2702      C2709   1.357       .  A
N2703      N2704   1.327       .  A
N2703     Mn2706   2.441       .  S
N2704      C2708   1.358       .  A
C2708      C2962   1.471       .  S
C2709      C2866   1.493       .  S
N2710      N2711   1.309       .  A
N2710      N2716   1.307       .  A
N2710     Mn2739   2.292       .  S
N2711      C2718   1.347       .  A
N2712      N2714   1.303       .  A
N2712      N2713   1.312       .  A
N2712     Mn2728   2.333       .  S
N2713      C2719   1.342       .  A
N2714      N2715   1.317       .  A
N2714     Mn2739   2.323       .  S
N2715      C2719   1.350       .  A
N2716      N2717   1.316       .  A
N2716     Mn2728   2.337       .  S
N2717      C2718   1.352       .  A
C2718      C2930   1.458       .  S
C2719      C2802   1.445       .  S
N2720     Mn2750   2.339   1_545  S
N2722      N2723   1.336       .  A
N2722      N2724   1.323       .  A
N2723      C2730   1.364       .  A
N2724      N2725   1.323       .  A
N2725      C2730   1.348       .  A
N2726     Mn2728   2.349       .  S
C2730      C2834   1.502       .  S
N2731      N2732   1.337       .  A
N2731      N2737   1.312       .  A
N2732      C2740   1.366       .  A
N2733      N2734   1.325   1_655  A
N2733     Mn2751   2.359       .  S
N2734      C2741   1.358       .  A
N2735      N2736   1.320       .  A
N2735     Mn2739   2.334       .  S
N2737      N2738   1.333       .  A
N2738      C2740   1.362       .  A
C2740      C2901   1.542       .  S
N2742      N2743   1.317       .  A
N2742      N2748   1.303       .  A
N2742     Mn2750   2.318       .  S
N2743      C2753   1.346       .  A
N2744      N2745   1.316       .  A
N2744      N2746   1.307       .  A
N2744     Mn2751   2.356       .  S
N2745      C2754   1.355       .  A
N2746      N2747   1.308       .  A
N2746     Mn2750   2.284       .  S
N2747      C2754   1.349       .  A
N2748      N2749   1.311       .  A
N2748     Mn2751   2.334       .  S
N2749      C2753   1.339       .  A
C2753      C2914   1.446       .  S
C2754      C2818   1.447       .  S
C2755      C2757   1.568       .  S
C2755      C2759   1.583       .  S
C2755      C2758   1.579       .  S
C2755      C2779   1.851       .  S
C2756      C2760   1.548       .  S
C2756      C2762   1.589       .  S
C2756      C2761   1.569       .  S
C2756      C2778   1.834       .  S
C2757      C2765   1.371       .  A
C2757      C2760   1.459       .  A
C2758      C2769   1.391       .  A
C2758      C2761   1.471       .  A
C2759      C2773   1.378       .  A
C2759      C2762   1.478       .  A
C2760      C2763   1.351       .  A
C2761      C2767   1.360       .  A
C2762      C2770   1.373       .  A
C2763      N2764   1.347       .  A
C2763      H2776   1.078       .  S
N2764      C2765   1.353       .  A
N2764      C2885   1.415       .  S
C2765      H2766   1.078       .  S
C2767      N2768   1.338       .  A
C2767      H2777   1.067       .  S
N2768      C2769   1.341       .  A
N2768      C2850   1.434       .  S
C2769      H2775   1.070       .  S
C2770      N2771   1.357       .  A
C2770      H2772   1.076       .  S
N2771      C2773   1.357       .  A
N2771      C2869   1.435       .  S
C2773      H2774   1.081       .  S
C2778      C2780   1.593       .  S
C2778      C2782   1.550       .  S
C2778      C2781   1.588       .  S
C2779      C2783   1.584       .  S
C2779      C2785   1.561       .  S
C2779      C2784   1.556       .  S
C2780      C2788   1.385       .  A
C2781      C2792   1.383       .  A
C2782      C2796   1.358       .  A
C2783      C2786   1.379       .  A
C2784      C2790   1.364       .  A
C2785      C2793   1.361       .  A
C2786      H2799   1.076       .  S
N2787      C2788   1.357   1_554  A
C2788      H2789   1.080       .  S
C2790      H2800   1.075       .  S
N2791      C2792   1.343   1_554  A
C2792      H2798   1.076       .  S
C2793      H2795   1.083       .  S
N2794      C2796   1.351   1_554  A
C2796      H2797   1.082       .  S
C2801      C2802   1.391       .  A
C2801      C2806   1.395       .  A
C2801      H2808   1.085       .  S
C2802      C2803   1.413       .  A
C2803      C2810   1.510       .  S
C2803      C2804   1.389       .  A
C2804      C2805   1.394       .  A
C2805      C2806   1.416       .  A
C2806      C2807   1.507       .  S
C2807      H2811   1.111       .  S
C2807      H2812   1.101       .  S
C2807      H2813   1.108       .  S
C2810      H2815   1.111       .  S
C2817      C2818   1.398       .  A
C2817      C2822   1.377       .  A
C2817      H2824   1.083       .  S
C2818      C2819   1.406       .  A
C2819      C2826   1.499       .  S
C2819      C2820   1.393       .  A
C2820      C2821   1.397       .  A
C2820      H2825   1.084       .  S
C2821      C2822   1.407       .  A
C2822      C2823   1.502       .  S
C2823      H2827   1.109       .  S
C2823      H2829   1.110       .  S
C2826      H2830   1.110   1_565  S
C2826      H2831   1.108       .  S
C2826      H2832   1.111       .  S
C2833      C2834   1.407       .  A
C2833      C2838   1.407       .  A
C2833      H2840   1.084       .  S
C2834      C2835   1.426       .  A
C2835      C2842   1.508       .  S
C2835      C2836   1.408       .  A
C2836      C2837   1.396       .  A
C2837      C2838   1.412       .  A
C2838      C2839   1.504       .  S
C2839      H2843   1.111       .  S
C2839      H2844   1.107       .  S
C2839      H2845   1.110       .  S
C2842      H2847   1.110       .  S
C2849      C2850   1.391       .  A
C2849      C2854   1.391       .  A
C2849      H2856   1.082       .  S
C2850      C2851   1.419       .  A
C2851      C2858   1.505       .  S
C2851      C2852   1.399       .  A
C2852      C2853   1.398       .  A
C2852      H2857   1.078       .  S
C2853      C2854   1.427       .  A
C2854      C2855   1.514       .  S
C2855      H2859   1.111       .  S
C2855      H2860   1.110       .  S
C2855      H2861   1.109       .  S
C2858      H2862   1.109       .  S
C2858      H2863   1.111       .  S
C2858      H2864   1.109       .  S
C2865      C2866   1.410       .  A
C2865      C2870   1.410       .  A
C2865      H2872   1.084       .  S
C2866      C2867   1.427       .  A
C2867      C2874   1.511       .  S
C2867      C2868   1.398       .  A
C2868      C2869   1.394       .  A
C2868      H2873   1.084       .  S
C2869      C2870   1.405       .  A
C2870      C2871   1.501       .  S
C2871      H2875   1.109       .  S
C2871      H2876   1.110       .  S
C2871      H2877   1.109       .  S
C2874      H2878   1.107       .  S
C2874      H2879   1.111       .  S
C2874      H2880   1.111       .  S
C2881      C2882   1.397       .  A
C2881      C2886   1.386       .  A
C2881      H2888   1.085       .  S
C2882      C2883   1.421       .  A
C2883      C2890   1.510       .  S
C2883      C2884   1.392       .  A
C2884      C2885   1.390       .  A
C2884      H2889   1.084       .  S
C2885      C2886   1.418       .  A
C2886      C2887   1.509       .  S
C2887      H2891   1.111       .  S
C2887      H2892   1.100       .  S
C2887      H2893   1.111       .  S
C2890      H2894   1.109       .  S
C2890      H2895   1.109   1_565  S
C2890      H2896   1.111       .  S
C2897      C2898   1.407       .  A
C2897      C2902   1.425       .  A
C2897      H2904   1.083       .  S
C2898      C2899   1.414       .  A
C2899      C2906   1.502       .  S
C2899      C2900   1.425       .  A
C2900      C2901   1.416       .  A
C2900      H2905   1.083       .  S
C2901      C2902   1.431       .  A
C2902      C2903   1.504       .  S
C2903      H2907   1.111       .  S
C2903      H2908   1.107       .  S
C2903      H2909   1.105       .  S
C2906      H2910   1.110       .  S
C2906      H2911   1.110       .  S
C2906      H2912   1.111       .  S
C2913      C2914   1.391       .  A
C2913      C2918   1.393       .  A
C2913      H2920   1.085       .  S
C2914      C2915   1.414       .  A
C2915      C2922   1.511       .  S
C2915      C2916   1.393       .  A
C2916      C2917   1.396       .  A
C2916      H2921   1.083       .  S
C2917      C2918   1.416       .  A
C2918      C2919   1.506       .  S
C2919      H2923   1.110       .  S
C2919      H2924   1.106       .  S
C2919      H2925   1.110       .  S
C2922      H2926   1.105       .  S
C2922      H2927   1.104       .  S
C2922      H2928   1.111       .  S
C2929      C2930   1.405       .  A
C2929      C2934   1.399       .  A
C2929      H2936   1.084       .  S
C2930      C2931   1.414       .  A
C2931      C2938   1.504       .  S
C2931      C2932   1.375       .  A
C2932      C2933   1.396       .  A
C2932      H2937   1.082       .  S
C2933      C2934   1.409       .  A
C2934      C2935   1.505       .  S
C2935      H2939   1.110       .  S
C2935      H2940   1.109       .  S
C2935      H2941   1.110       .  S
C2938      H2942   1.108       .  S
C2938      H2943   1.104       .  S
C2938      H2944   1.109       .  S
C2945      C2946   1.402       .  A
C2945      C2950   1.393       .  A
C2945      H2952   1.084       .  S
C2946      C2947   1.399       .  A
C2947      C2954   1.505       .  S
C2947      C2948   1.391       .  A
C2948      C2949   1.409       .  A
C2948      H2953   1.084       .  S
C2949      C2950   1.415       .  A
C2950      C2951   1.509       .  S
C2951      H2955   1.111       .  S
C2951      H2956   1.110       .  S
C2951      H2957   1.108       .  S
C2954      H2958   1.110       .  S
C2954      H2960   1.111       .  S
C2961      C2962   1.395       .  A
C2961      C2966   1.398       .  A
C2961      H2968   1.081       .  S
C2962      C2963   1.426       .  A
C2964      H2969   1.082       .  S
C2965      C2966   1.422       .  A
C2966      C2967   1.506       .  S
C2967      H2971   1.109       .  S
C2967      H2972   1.111   1_556  S
C2967      H2973   1.109       .  S
C2970      H2974   1.108       .  S
C2970      H2975   1.108       .  S
C2970      H2976   1.110       .  S
C2977      C2978   1.411       .  A
C2977      C2982   1.417       .  A
C2977      H2984   1.083       .  S
C2978      C2979   1.434       .  A
C2980      H2985   1.085       .  S
C2981      C2982   1.409       .  A
C2982      C2983   1.500       .  S
C2983      H2987   1.108       .  S
C2983      H2988   1.108       .  S
C2983      H2989   1.110       .  S
C2986      H2990   1.108       .  S
C2986      H2991   1.106       .  S
C2986      H2992   1.110       .  S
