geometry optimzed in LAMMPS
_audit_creation_date              2020-11-30 
_audit_creation_method            'lammps2cif' 
_symmetry_space_group_name_H-M    'P1' 
_symmetry_Int_Tables_number       1 
_symmetry_cell_setting            triclinic 
loop_ 
_symmetry_equiv_pos_as_xyz 
  x,y,z 
_cell_length_a                    37.736168191941296 
_cell_length_b                    37.6857191220544 
_cell_length_c                    31.647356082803586 
_cell_angle_alpha                 89.33826679500928 
_cell_angle_beta                  90.02045627124159 
_cell_angle_gamma                 119.81442967111268 
loop_ 
_atom_site_label 
_atom_site_type_symbol 
_atom_site_fract_x 
_atom_site_fract_y 
_atom_site_fract_z 
_atom_site_charge 
C1          C  0.38698475  0.06452156  0.25456649     0.02770
C2          C  0.37102273  0.07265567  0.21804059    -0.13380
C3          C  0.35224068  0.09697508  0.21964464     0.00270
C4          C  0.35138755  0.11381985  0.25872083    -0.11910
C5          C  0.36231192  0.10146720  0.29615363     0.02760
C6          C  0.38105102  0.07750767  0.29389595    -0.11330
H7          H  0.37245419  0.05874746  0.18887837     0.08350
H8          H  0.34067935  0.13550781  0.26085747     0.05880
H9          H  0.38926711  0.06741285  0.32258548     0.05730
C10         C  0.33477758  0.35930323  0.28828868     0.02770
C11         C  0.32313336  0.33860939  0.24978901    -0.13380
C12         C  0.33383058  0.36038889  0.21131741     0.00270
C13         C  0.35674991  0.40311658  0.21135002    -0.11910
C14         C  0.36859028  0.42395738  0.24962238     0.02760
C15         C  0.35766529  0.40211082  0.28805167    -0.11330
H16         H  0.30643664  0.30545510  0.24973254     0.08350
H17         H  0.36593704  0.42010009  0.18171011     0.05880
H18         H  0.36749459  0.41838919  0.31759976     0.05730
Fe19       Fe  0.22231016  0.20623011  0.00227479     1.65780
Fe20       Fe  0.22602865  0.11751839  0.50397896     1.73360
Fe21       Fe  0.31500979  0.21009798  0.50390815     1.54420
O22         O  0.31790586  0.24909891  0.45575713    -0.82040
O23         O  0.26030710  0.11561050  0.05342811    -0.80340
O24         O  0.25708494  0.24512875  0.45418463    -0.84540
O25         O  0.25715107  0.24764092  0.04730407    -0.79400
O26         O  0.32130032  0.17509421  0.45804365    -0.81170
O27         O  0.18435054  0.11202304  0.04882779    -0.83920
C28         C  0.29243628  0.26098347  0.06271087     0.96850
C29         C  0.29314945  0.25913288  0.44002669     1.04290
O30         O  0.25451605  0.17800191  0.50334273    -1.12900
O31         O  0.18806472  0.11258431  0.45494788    -0.75330
O32         O  0.18286869  0.16857405  0.45692271    -0.78820
O33         O  0.31681420  0.24940487  0.04984550    -0.79510
C34         C  0.17365564  0.13444995  0.44094333     0.95750
O35         O  0.18418939  0.17092425  0.05072723    -0.77460
O36         O  0.26418903  0.11474226  0.45939640    -0.82660
C37         C  0.29522453  0.13993452  0.06811010     0.98380
C38         C  0.29916521  0.13919422  0.44425515     1.04290
O39         O  0.31910343  0.17494028  0.05215208    -0.78300
C40         C  0.17247683  0.13509491  0.06457888     1.02590
C41         C  0.07204538  0.07665635  0.29319936     0.02770
C42         C  0.09456853  0.08913708  0.25564051    -0.13380
C43         C  0.07489010  0.07884286  0.21659416     0.00270
C44         C  0.03205354  0.05717766  0.21542267    -0.11910
C45         C  0.50921733  0.04543636  0.25301039     0.02760
C46         C  0.02929774  0.05490662  0.29203492    -0.11330
H47         H  0.12759155  0.10734110  0.25691152     0.08350
H48         H  0.51640901  0.05024266  0.18535650     0.05880
H49         H  0.51178711  0.04657912  0.32120328     0.05730
Fe50       Fe  0.12808993  0.32327881  0.99287451     1.65780
Fe51       Fe  0.11015913  0.40375809  0.49712979     1.73250
Fe52       Fe  0.03002082  0.30555766  0.50002693     1.54410
O53         O  0.03138646  0.27307868  0.44911190    -0.82040
O54         O  0.07010441  0.39907041  0.04495537    -0.80340
O55         O  0.09272774  0.27808121  0.44980037    -0.84540
O56         O  0.10250691  0.28401433  0.04358428    -0.79400
O57         O  0.01544443  0.33830643  0.45716998    -0.81170
O58         O  0.15251334  0.41385224  0.04331498    -0.83920
C59         C  0.06650890  0.26399902  0.05818689     0.96850
C60         C  0.05718042  0.26420865  0.43455135     1.04290
O61         O  0.08942179  0.34422722  0.49678464    -1.12900
O62         O  0.15290632  0.41653390  0.44920740    -0.75330
O63         O  0.15775797  0.36035052  0.44182425    -0.78820
O64         O  0.03706087  0.26747806  0.04313513    -0.79510
C65         C  0.16625495  0.39600834  0.43010066     0.95750
O66         O  0.16899896  0.36543778  0.03519924    -0.77460
O67         O  0.07028920  0.40019301  0.45077960    -0.82660
C68         C  0.03832766  0.37072925  0.06316659     0.98380
C69         C  0.03450435  0.37357645  0.43998340     1.04290
O70         O  0.02132706  0.33409160  0.05082725    -0.78300
C71         C  0.17382075  0.39748541  0.05310795     1.02590
C72         C  0.45540819  0.45720349  0.24934399     0.02770
C73         C  0.46442092  0.44470580  0.21112466    -0.13380
C74         C  0.48119549  0.41867324  0.21127983     0.00270
C75         C  0.48763050  0.40449093  0.25027719    -0.11910
C76         C  0.47726759  0.41565551  0.28867238     0.02760
C77         C  0.46140455  0.44230742  0.28775702    -0.11330
H78         H  0.45848841  0.45536144  0.18145427     0.08350
H79         H  0.50191385  0.38567199  0.25072293     0.05880
H80         H  0.45365564  0.45159813  0.31701981     0.05730
C81         C  0.26733440  0.45324911  0.27945107     0.02770
C82         C  0.25030835  0.44943648  0.23921931    -0.13380
C83         C  0.27402418  0.45733897  0.20253705     0.00270
C84         C  0.31591894  0.97107476  0.20637543    -0.11910
C85         C  0.33398151  0.97761062  0.24647669     0.02760
C86         C  0.30959457  0.96842485  0.28293109    -0.11330
H87         H  0.21789107  0.43846953  0.23639101     0.08350
H88         H  0.33457130  0.97718771  0.17826037     0.05880
H89         H  0.32338757  0.97224595  0.31380075     0.05730
C90         C  0.01304851  0.16516837  0.28443704     0.02770
C91         C  0.02996054  0.18350102  0.24509771    -0.13380
C92         C  0.01970228  0.16046745  0.20784269     0.00270
C93         C  0.49413397  0.11785144  0.21132575    -0.11910
C94         C  0.47589920  0.09917204  0.25008126     0.02760
C95         C  0.48576326  0.12282431  0.28660430    -0.11330
H96         H  0.05057981  0.21619788  0.24350987     0.08350
H97         H  0.48830858  0.09879841  0.18403220     0.05880
H98         H  0.47225921  0.10820636  0.31660375     0.05730
C99         C  0.40497581  0.03752944  0.25232646     0.01920
C100        C  0.37883699  0.99479201  0.24997466     0.01920
C101        C  0.39558490  0.46870313  0.24942857     0.01920
C102        C  0.43828449  0.48508354  0.24961733     0.01920
C103        C  0.46438959  0.02777174  0.25141721     0.01920
C104        C  0.44788013  0.05416132  0.25226025     0.01920
C105        C  0.01979451  0.19954633  0.09590601    -0.09520
C106        C  0.05796134  0.23511178  0.09405475     0.06680
C107        C  0.08585500  0.24261337  0.12720945    -0.03290
C108        C  0.07384244  0.21620200  0.16249206    -0.07730
C109        C  0.03422169  0.18208316  0.16593146     0.05790
C110        C  0.50799105  0.17301482  0.13076172    -0.02760
Br111      Br  0.45468254  0.12664099  0.12744495    -0.02450
H112        H  0.49848077  0.19260052  0.07014146     0.09700
H113        H  0.09524126  0.22334244  0.18816388     0.07720
Br114      Br  0.13929582  0.29011860  0.12849633    -0.02880
C115        C  0.03574046  0.17777461  0.35986639    -0.09520
C116        C  0.02383093  0.19048703  0.32311095     0.06680
C117        C  0.02119066  0.22660918  0.32443714    -0.03290
C118        C  0.03245692  0.25012094  0.36100321    -0.07730
C119        C  0.04560552  0.23805963  0.39703076     0.05790
C120        C  0.04609476  0.20100721  0.39678762    -0.02760
Br121      Br  0.05654782  0.17922085  0.44737496    -0.02450
H122        H  0.03631269  0.14933913  0.36010869     0.09700
H123        H  0.03047394  0.27783774  0.36149814     0.07720
Br124      Br  0.99814047  0.24315956  0.27937406    -0.02880
C125        C  0.24972940  0.46565294  0.35208024    -0.09520
C126        C  0.24048171  0.43939823  0.31748586     0.06680
C127        C  0.20588548  0.39977661  0.32006376    -0.03290
C128        C  0.18219912  0.38697592  0.35683451    -0.07730
C129        C  0.19150467  0.41292134  0.39148153     0.05790
C130        C  0.22536826  0.45287317  0.38878121    -0.02760
Br131      Br  0.24122835  0.49008272  0.43506350    -0.02450
H132        H  0.27603989  0.99617616  0.35056136     0.09700
H133        H  0.15621985  0.35623122  0.35844992     0.07720
Br134      Br  0.18991403  0.36049492  0.27556802    -0.02880
C135        C  0.25659752  0.41861466  0.13530140    -0.09520
C136        C  0.25362716  0.44725068  0.16078449     0.06680
C137        C  0.22777982  0.46230976  0.14803424    -0.03290
C138        C  0.20351424  0.44675866  0.11220174    -0.07730
C139        C  0.20418671  0.41600919  0.08791648     0.05790
C140        C  0.23249688  0.40306672  0.09909232    -0.02760
Br141      Br  0.24050422  0.36447980  0.06721350    -0.02450
H142        H  0.27667111  0.40703895  0.14453034     0.09700
H143        H  0.18310788  0.45821948  0.10413140     0.07720
Br144      Br  0.22420266  0.50415057  0.17831795    -0.02880
C145        C  0.49086103  0.35280062  0.37574814    -0.09520
C146        C  0.01509605  0.38350371  0.40455708     0.06680
C147        C  0.02227587  0.42357486  0.39730848    -0.03290
C148        C  0.00802545  0.43278491  0.36036304    -0.07730
C149        C  0.48673029  0.40288330  0.32983738     0.05790
C150        C  0.47643690  0.36207846  0.33881754    -0.02760
Br151      Br  0.44114791  0.31756509  0.30306277    -0.02450
H152        H  0.48395942  0.32158566  0.38137090     0.09700
H153        H  0.01473266  0.46393990  0.35493278     0.07720
Br154      Br  0.05045935  0.46694273  0.43696818    -0.02880
C155        C  0.03402638  0.42287192  0.10711132    -0.09520
C156        C  0.02066972  0.38138432  0.09997462     0.06680
C157        C  0.49151957  0.35197154  0.12853349    -0.03290
C158        C  0.47830137  0.36478457  0.16370345    -0.07730
C159        C  0.49284907  0.40641098  0.17126441     0.05790
C160        C  0.02038042  0.43538212  0.14187254    -0.02760
Br161      Br  0.04285069  0.49281028  0.14820409    -0.02450
H162        H  0.05576429  0.44614964  0.08567977     0.09700
H163        H  0.45678184  0.34200641  0.18570412     0.07720
Br164      Br  0.46906710  0.29392690  0.12326078    -0.02880
C165        C  0.15372232  0.09727822  0.13242803    -0.09520
C166        C  0.14585677  0.12000632  0.10221395     0.06680
C167        C  0.11383040  0.12832515  0.10937337    -0.03290
C168        C  0.09081366  0.11438840  0.14666903    -0.07730
C169        C  0.09929031  0.09234004  0.17721946     0.05790
C170        C  0.13096365  0.08354334  0.16967405    -0.02760
Br171      Br  0.14303750  0.05067363  0.20748936    -0.02450
H172        H  0.17812198  0.09049253  0.12727837     0.09700
H173        H  0.06637523  0.12105862  0.15199501     0.07720
Br174      Br  0.09875280  0.15657144  0.06867373    -0.02880
C175        C  0.13318155  0.08013508  0.38877588    -0.09520
C176        C  0.14530129  0.11942610  0.40439424     0.06680
C177        C  0.13144131  0.14367318  0.38320150    -0.03290
C178        C  0.10530713  0.12781673  0.34870021    -0.07730
C179        C  0.09404904  0.08906137  0.33331558     0.05790
C180        C  0.10903076  0.06558674  0.35275069    -0.02760
Br181      Br  0.10088361  0.01566860  0.32851833    -0.02450
H182        H  0.14380253  0.06108472  0.40351280     0.09700
H183        H  0.09558597  0.14680336  0.33211952     0.07720
Br184      Br  0.14947748  0.19991809  0.39572410    -0.02880
C185        C  0.35570821  0.33897889  0.35484079    -0.09520
C186        C  0.32437334  0.33584211  0.32848785     0.06680
C187        C  0.28351780  0.30911358  0.34012988    -0.03290
C188        C  0.27450328  0.28519138  0.37666050    -0.07730
C189        C  0.30555681  0.28703966  0.40265335     0.05790
C190        C  0.34675532  0.31490044  0.39168995    -0.02760
Br191      Br  0.39218245  0.32295924  0.42586841    -0.02450
H192        H  0.38730541  0.35980062  0.34634024     0.09700
H193        H  0.24271699  0.26448371  0.38435245     0.07720
Br194      Br  0.23847568  0.30458468  0.30814689    -0.02880
C195        C  0.35443505  0.34165503  0.14451331    -0.09520
C196        C  0.32313604  0.33810944  0.17118847     0.06680
C197        C  0.28220397  0.31199439  0.16008837    -0.03290
C198        C  0.27311285  0.28798336  0.12419167    -0.07730
C199        C  0.30429993  0.28971616  0.09838230     0.05790
C200        C  0.34542684  0.31797224  0.10814352    -0.02760
Br201      Br  0.39056613  0.32723134  0.07259507    -0.02450
H202        H  0.38605906  0.36242811  0.15244561     0.09700
H203        H  0.24132321  0.26725542  0.11694842     0.07720
Br204      Br  0.23759241  0.30888496  0.19211530    -0.02880
C205        C  0.28790540  0.12267072  0.14429137    -0.09520
C206        C  0.30827789  0.12709515  0.10599207     0.06680
C207        C  0.34008538  0.11830516  0.10426775    -0.03290
C208        C  0.35250903  0.10724692  0.14117289    -0.07730
C209        C  0.33454048  0.10535221  0.18074407     0.05790
C210        C  0.30027711  0.11158009  0.18149944    -0.02760
Br211      Br  0.26549166  0.10156974  0.22989977    -0.02450
H212        H  0.26206859  0.12777459  0.14519727     0.09700
H213        H  0.37644062  0.10011659  0.13843953     0.07720
Br214      Br  0.36628425  0.11947048  0.05181775    -0.02880
C215        C  0.30494065  0.09256872  0.34080460    -0.09520
C216        C  0.34708648  0.10792209  0.33675587     0.06680
C217        C  0.37285524  0.13034594  0.37012889    -0.03290
C218        C  0.35660278  0.13946511  0.40540689    -0.07730
C219        C  0.31458246  0.12575268  0.40848293     0.05790
C220        C  0.28852568  0.10126050  0.37597625    -0.02760
Br221      Br  0.23087450  0.08170618  0.37500852    -0.02450
H222        H  0.28465941  0.07446264  0.31572435     0.09700
H223        H  0.37697700  0.15778477  0.43033214     0.07720
Br224      Br  0.43027421  0.15062533  0.36860121    -0.02880
C225        C  0.38697933  0.06450897  0.75453320     0.02770
C226        C  0.37092971  0.07253372  0.71801126    -0.13380
C227        C  0.35211585  0.09682577  0.71957705     0.00270
C228        C  0.35133738  0.11376115  0.75862712    -0.11910
C229        C  0.36231973  0.10148702  0.79607638     0.02760
C230        C  0.38108721  0.07755382  0.79384419    -0.11330
H231        H  0.37232021  0.05854417  0.68889681     0.08350
H232        H  0.34065059  0.13546542  0.76074137     0.05880
H233        H  0.38934904  0.06751513  0.82254223     0.05730
C234        C  0.33479138  0.35930264  0.78830307     0.02770
C235        C  0.32314149  0.33861161  0.74980225    -0.13380
C236        C  0.33383643  0.36039407  0.71133284     0.00270
C237        C  0.35675846  0.40312093  0.71136773    -0.11910
C238        C  0.36860556  0.42395866  0.74964084     0.02760
C239        C  0.35768359  0.40211005  0.78806884    -0.11330
H240        H  0.30644170  0.30545738  0.74974291     0.08350
H241        H  0.36594210  0.42010620  0.68172867     0.05880
H242        H  0.36751675  0.41838653  0.81761765     0.05730
Fe243      Fe  0.22228333  0.20626525  0.50227854     1.65780
Fe244      Fe  0.22608058  0.11749466  0.00399397     1.73360
Fe245      Fe  0.31504800  0.21008831  0.00390015     1.54420
O246        O  0.31793320  0.24908869  0.95575636    -0.82040
O247        O  0.26024139  0.11561619  0.55340664    -0.80340
O248        O  0.25710469  0.24509805  0.95418098    -0.84540
O249        O  0.25713004  0.24767156  0.54730868    -0.79400
O250        O  0.32133899  0.17509358  0.95802558    -0.81170
O251        O  0.18429945  0.11204980  0.54880872    -0.83920
C252        C  0.29241442  0.26100680  0.56271414     0.96850
C253        C  0.29317126  0.25911405  0.94002573     1.04290
O254        O  0.25455433  0.17797863  0.00334460    -1.12900
O255        O  0.18809938  0.11253985  0.95496446    -0.75330
O256        O  0.18290457  0.16853110  0.95692111    -0.78820
O257        O  0.31678554  0.24942152  0.54984659    -0.79510
C258        C  0.17368758  0.13440192  0.94095295     0.95750
O259        O  0.18416548  0.17096327  0.55073544    -0.77460
O260        O  0.26424352  0.11472707  0.95940091    -0.82660
C261        C  0.29515049  0.13993265  0.56810793     0.98380
C262        C  0.29920974  0.13919054  0.94424191     1.04290
O263        O  0.31904257  0.17494421  0.55217018    -0.78300
C264        C  0.17244351  0.13512871  0.56457705     1.02590
C265        C  0.07205442  0.07660732  0.79321998     0.02770
C266        C  0.09457651  0.08909996  0.75566015    -0.13380
C267        C  0.07489487  0.07884628  0.71661385     0.00270
C268        C  0.03205904  0.05720711  0.71544364    -0.11910
C269        C  0.50922493  0.04544423  0.75303130     0.02760
C270        C  0.02930579  0.05487800  0.79205587    -0.11330
H271        H  0.12760074  0.10728800  0.75693038     0.08350
H272        H  0.51641347  0.05030400  0.68537878     0.05880
H273        H  0.51179581  0.04653927  0.82122496     0.05730
Fe274      Fe  0.12806997  0.32327952  0.49286259     1.65780
Fe275      Fe  0.11016987  0.40374687  0.99713533     1.73250
Fe276      Fe  0.03003667  0.30554417  0.00002753     1.54410
O277        O  0.03141386  0.27308370  0.94910404    -0.82040
O278        O  0.07010852  0.39908931  0.54496190    -0.80340
O279        O  0.09274515  0.27806304  0.94983468    -0.84540
O280        O  0.10247982  0.28399565  0.54356054    -0.79400
O281        O  0.01545835  0.33830328  0.95718230    -0.81170
O282        O  0.15251606  0.41386518  0.54329832    -0.83920
C283        C  0.06649019  0.26400837  0.55818917     0.96850
C284        C  0.05720636  0.26420006  0.93456848     1.04290
O285        O  0.08943681  0.34421840  0.99679113    -1.12900
O286        O  0.15293002  0.41652780  0.94922319    -0.75330
O287        O  0.15776368  0.36033595  0.94182299    -0.78820
O288        O  0.03705128  0.26751239  0.54315224    -0.79510
C289        C  0.16626904  0.39599833  0.93010683     0.95750
O290        O  0.16897146  0.36542536  0.53520611    -0.77460
O291        O  0.07031210  0.40018144  0.95077500    -0.82660
C292        C  0.03832446  0.37075160  0.56316507     0.98380
C293        C  0.03452290  0.37356990  0.93998798     1.04290
O294        O  0.02131204  0.33411701  0.55081551    -0.78300
C295        C  0.17380911  0.39748501  0.55310296     1.02590
C296        C  0.45542327  0.45721448  0.74936925     0.02770
C297        C  0.46442863  0.44471718  0.71114625    -0.13380
C298        C  0.48121285  0.41869363  0.71129284     0.00270
C299        C  0.48765794  0.40451367  0.75028726    -0.11910
C300        C  0.47729516  0.41567197  0.78868635     0.02760
C301        C  0.46142807  0.44232038  0.78777893    -0.11330
H302        H  0.45848134  0.45536583  0.68147948     0.08350
H303        H  0.50194582  0.38569886  0.75072787     0.05880
H304        H  0.45368120  0.45160841  0.81704468     0.05730
C305        C  0.26733859  0.45324035  0.77944823     0.02770
C306        C  0.25031073  0.44942454  0.73921680    -0.13380
C307        C  0.27402383  0.45732151  0.70253311     0.00270
C308        C  0.31591769  0.97104844  0.70637142    -0.11910
C309        C  0.33398470  0.97759632  0.74647281     0.02760
C310        C  0.30959914  0.96841783  0.78292725    -0.11330
H311        H  0.21789364  0.43845943  0.73639037     0.08350
H312        H  0.33456788  0.97715425  0.67825600     0.05880
H313        H  0.32339368  0.97224552  0.81379687     0.05730
C314        C  0.01313803  0.16516093  0.78447122     0.02770
C315        C  0.03006961  0.18350359  0.74514295    -0.13380
C316        C  0.01974539  0.16049554  0.70787757     0.00270
C317        C  0.49412026  0.11788194  0.71132182    -0.11910
C318        C  0.47591237  0.09918278  0.75008282     0.02760
C319        C  0.48582200  0.12282039  0.78662227    -0.11330
H320        H  0.05073101  0.21619387  0.74356121     0.08350
H321        H  0.48820293  0.09886310  0.68397531     0.05880
H322        H  0.47232052  0.10819572  0.81662004     0.05730
C323        C  0.40498053  0.03752781  0.75231901     0.01920
C324        C  0.37884397  0.99478798  0.74997310     0.01920
C325        C  0.39559643  0.46870443  0.74944706     0.01920
C326        C  0.43829579  0.48509020  0.74964658     0.01920
C327        C  0.46439801  0.02777975  0.75143863     0.01920
C328        C  0.44788727  0.05416857  0.75225738     0.01920
C329        C  0.01966178  0.19970325  0.59606904    -0.09520
C330        C  0.05793473  0.23512725  0.59407262     0.06680
C331        C  0.08590379  0.24251958  0.62712855    -0.03290
C332        C  0.07389714  0.21612093  0.66242718    -0.07730
C333        C  0.03420774  0.18213688  0.66598181     0.05790
C334        C  0.50785206  0.17322254  0.63096120    -0.02760
Br335      Br  0.45430504  0.12721211  0.62802955    -0.02450
H336        H  0.49825364  0.19285390  0.57041656     0.09700
H337        H  0.09535445  0.22316904  0.68802484     0.07720
Br338      Br  0.13945798  0.28986635  0.62827372    -0.02880
C339        C  0.03577823  0.17775256  0.85991519    -0.09520
C340        C  0.02390615  0.19047632  0.82314264     0.06680
C341        C  0.02128052  0.22660787  0.82444734    -0.03290
C342        C  0.03252974  0.25011946  0.86101078    -0.07730
C343        C  0.04564374  0.23804793  0.89705539     0.05790
C344        C  0.04611561  0.20098646  0.89683369    -0.02760
Br345      Br  0.05652510  0.17919359  0.94744225    -0.02450
H346        H  0.03633461  0.14930898  0.86017232     0.09700
H347        H  0.03056021  0.27784406  0.86149017     0.07720
Br348      Br  0.99826805  0.24317288  0.77935814    -0.02880
C349        C  0.24973432  0.46564690  0.85207724    -0.09520
C350        C  0.24048737  0.43939058  0.81748443     0.06680
C351        C  0.20589450  0.39976711  0.82006607    -0.03290
C352        C  0.18221146  0.38696577  0.85683914    -0.07730
C353        C  0.19151664  0.41291225  0.89148544     0.05790
C354        C  0.22537634  0.45286656  0.88878068    -0.02760
Br355      Br  0.24123628  0.49008003  0.93505934    -0.02450
H356        H  0.27604197  0.99617186  0.85055531     0.09700
H357        H  0.15623476  0.35621963  0.85845664     0.07720
Br358      Br  0.18992336  0.36048402  0.77557192    -0.02880
C359        C  0.25659747  0.41861386  0.63528408    -0.09520
C360        C  0.25362419  0.44724085  0.66077983     0.06680
C361        C  0.22777367  0.46230032  0.64803922    -0.03290
C362        C  0.20350203  0.44675029  0.61220862    -0.07730
C363        C  0.20417705  0.41600767  0.58791210     0.05790
C364        C  0.23249616  0.40307298  0.59907384    -0.02760
Br365      Br  0.24052368  0.36451563  0.56716399    -0.02450
H366        H  0.27667657  0.40704151  0.64450181     0.09700
H367        H  0.18309123  0.45820791  0.60414680     0.07720
Br368      Br  0.22420780  0.50414626  0.67833035    -0.02880
C369        C  0.49088147  0.35280275  0.87575152    -0.09520
C370        C  0.01511574  0.38350139  0.90456441     0.06680
C371        C  0.02230088  0.42357508  0.89732018    -0.03290
C372        C  0.00805447  0.43279163  0.86037611    -0.07730
C373        C  0.48675838  0.40289409  0.82984734     0.05790
C374        C  0.47646171  0.36208722  0.83882169    -0.02760
Br375      Br  0.44117519  0.31758004  0.80305912    -0.02450
H376        H  0.48397778  0.32158663  0.88137040     0.09700
H377        H  0.01476599  0.46394853  0.85494911     0.07720
Br378      Br  0.05048835  0.46693864  0.93698355    -0.02880
C379        C  0.03399591  0.42289062  0.60708933    -0.09520
C380        C  0.02066985  0.38140608  0.59997499     0.06680
C381        C  0.49155215  0.35199419  0.62855708    -0.03290
C382        C  0.47833779  0.36480657  0.66372967    -0.07730
C383        C  0.49285792  0.40643142  0.67127170     0.05790
C384        C  0.02035290  0.43540097  0.64185342    -0.02760
Br385      Br  0.04277626  0.49282915  0.64814559    -0.02450
H386        H  0.05570619  0.44616533  0.58563628     0.09700
H387        H  0.45684421  0.34202916  0.68574826     0.07720
Br388      Br  0.46914808  0.29395325  0.62331638    -0.02880
C389        C  0.15368775  0.09727715  0.63240587    -0.09520
C390        C  0.14583611  0.12003979  0.60222130     0.06680
C391        C  0.11383582  0.12838913  0.60941810    -0.03290
C392        C  0.09082944  0.11444534  0.64671926    -0.07730
C393        C  0.09928993  0.09235847  0.67723755     0.05790
C394        C  0.13093769  0.08353309  0.66965619    -0.02760
Br395      Br  0.14298454  0.05061230  0.70742607    -0.02450
H396        H  0.17806906  0.09046972  0.62722917     0.09700
H397        H  0.06640994  0.12113762  0.65207382     0.07720
Br398      Br  0.09877720  0.15668533  0.56876132    -0.02880
C399        C  0.13321812  0.08008748  0.88877839    -0.09520
C400        C  0.14532527  0.11937171  0.90440872     0.06680
C401        C  0.13144166  0.14360817  0.88323386    -0.03290
C402        C  0.10530273  0.12774986  0.84873666    -0.07730
C403        C  0.09406058  0.08900382  0.83333670     0.05790
C404        C  0.10906151  0.06553833  0.85275563    -0.02760
Br405      Br  0.10092848  0.01563180  0.82850653    -0.02450
H406        H  0.14385308  0.06104410  0.90350398     0.09700
H407        H  0.09556594  0.14673020  0.83216922     0.07720
Br408      Br  0.14944438  0.19984243  0.89577708    -0.02880
C409        C  0.35572485  0.33897234  0.85484841    -0.09520
C410        C  0.32438867  0.33583831  0.82849978     0.06680
C411        C  0.28353360  0.30910787  0.84014227    -0.03290
C412        C  0.27452077  0.28518027  0.87666860    -0.07730
C413        C  0.30557591  0.28702585  0.90265689     0.05790
C414        C  0.34677401  0.31488922  0.89169349    -0.02760
Br415      Br  0.39220420  0.32294513  0.92586527    -0.02450
H416        H  0.38732164  0.35979529  0.84634724     0.09700
H417        H  0.24273454  0.26447075  0.88436063     0.07720
Br418      Br  0.23848978  0.30458338  0.80816601    -0.02880
C419        C  0.35443102  0.34165497  0.64452821    -0.09520
C420        C  0.32313596  0.33811909  0.67120244     0.06680
C421        C  0.28220201  0.31201923  0.66009948    -0.03290
C422        C  0.27310349  0.28801468  0.62419707    -0.07730
C423        C  0.30428590  0.28973736  0.59838757     0.05790
C424        C  0.34541640  0.31797667  0.60815499    -0.02760
Br425      Br  0.39055492  0.32721626  0.57261529    -0.02450
H426        H  0.38605683  0.36241595  0.65246469     0.09700
H427        H  0.24131192  0.26729818  0.61695086     0.07720
Br428      Br  0.23759949  0.30892015  0.69213425    -0.02880
C429        C  0.28791679  0.12279100  0.64430975    -0.09520
C430        C  0.30817776  0.12705553  0.60597451     0.06680
C431        C  0.33974959  0.11793000  0.60416821    -0.03290
C432        C  0.35207670  0.10671060  0.64103259    -0.07730
C433        C  0.33433827  0.10511729  0.68067170     0.05790
C434        C  0.30023176  0.11159848  0.68148956    -0.02760
Br435      Br  0.26548435  0.10168033  0.72990379    -0.02450
H436        H  0.26219774  0.12807887  0.64526129     0.09700
H437        H  0.37572498  0.09918710  0.63817448     0.07720
Br438      Br  0.36576742  0.11888230  0.55166301    -0.02880
C439        C  0.30496504  0.09260988  0.84074923    -0.09520
C440        C  0.34711113  0.10797119  0.83667916     0.06680
C441        C  0.37288791  0.13038794  0.87005179    -0.03290
C442        C  0.35664251  0.13948961  0.90534922    -0.07730
C443        C  0.31462079  0.12576361  0.90844944     0.05790
C444        C  0.28855746  0.10128181  0.87594175    -0.02760
Br445      Br  0.23090323  0.08170972  0.87500657    -0.02450
H446        H  0.28467478  0.07450266  0.81567528     0.09700
H447        H  0.37702321  0.15780442  0.93027268     0.07720
Br448      Br  0.43030819  0.15067960  0.86850334    -0.02880
C449        C  0.38698469  0.56452144  0.25456645     0.02770
C450        C  0.37102226  0.57265501  0.21804055    -0.13380
C451        C  0.35224007  0.59697430  0.21964437     0.00270
C452        C  0.35138729  0.61381953  0.25872042    -0.11910
C453        C  0.36231189  0.60146725  0.29615332     0.02760
C454        C  0.38105112  0.57750783  0.29389581    -0.11330
H455        H  0.37245352  0.55874638  0.18887858     0.08350
H456        H  0.34067923  0.63550759  0.26085692     0.05880
H457        H  0.38926741  0.56741328  0.32258539     0.05730
C458        C  0.33477757  0.85930326  0.28828866     0.02770
C459        C  0.32313336  0.83860942  0.24978899    -0.13380
C460        C  0.33383055  0.86038891  0.21131739     0.00270
C461        C  0.35674985  0.90311660  0.21134999    -0.11910
C462        C  0.36859021  0.92395741  0.24962235     0.02760
C463        C  0.35766525  0.90211086  0.28805164    -0.11330
H464        H  0.30643667  0.80545512  0.24973253     0.08350
H465        H  0.36593697  0.92010011  0.18171008     0.05880
H466        H  0.36749455  0.91838923  0.31759973     0.05730
Fe467      Fe  0.22231016  0.70623015  0.00227474     1.65780
Fe468      Fe  0.22602865  0.61751841  0.50397879     1.73360
Fe469      Fe  0.31500980  0.71009798  0.50390811     1.54420
O470        O  0.31790589  0.74909890  0.45575705    -0.82040
O471        O  0.26030706  0.61561044  0.05342782    -0.80340
O472        O  0.25708501  0.74512884  0.45418464    -0.84540
O473        O  0.25715102  0.74764088  0.04730409    -0.79400
O474        O  0.32130036  0.67509420  0.45804362    -0.81170
O475        O  0.18435055  0.61202304  0.04882770    -0.83920
C476        C  0.29243625  0.76098347  0.06271085     0.96850
C477        C  0.29314950  0.75913292  0.44002666     1.04290
O478        O  0.25451606  0.67800193  0.50334263    -1.12900
O479        O  0.18806467  0.61258436  0.45494778    -0.75330
O480        O  0.18286874  0.66857416  0.45692259    -0.78820
O481        O  0.31681419  0.74940492  0.04984542    -0.79510
C482        C  0.17365564  0.63445003  0.44094323     0.95750
O483        O  0.18418933  0.67092422  0.05072711    -0.77460
O484        O  0.26418899  0.61474233  0.45939615    -0.82660
C485        C  0.29522439  0.63993447  0.06811000     0.98380
C486        C  0.29916522  0.63919427  0.44425499     1.04290
O487        O  0.31910332  0.67494030  0.05215214    -0.78300
C488        C  0.17247681  0.63509489  0.06457877     1.02590
C489        C  0.07204538  0.57665640  0.29319928     0.02770
C490        C  0.09456853  0.58913711  0.25564042    -0.13380
C491        C  0.07489009  0.57884288  0.21659407     0.00270
C492        C  0.03205352  0.55717768  0.21542260    -0.11910
C493        C  0.50921736  0.54543640  0.25301035     0.02760
C494        C  0.02929775  0.55490664  0.29203485    -0.11330
H495        H  0.12759154  0.60734113  0.25691143     0.08350
H496        H  0.51640903  0.55024279  0.18535645     0.05880
H497        H  0.51178714  0.54657912  0.32120323     0.05730
Fe498      Fe  0.12808995  0.82327881  0.99287453     1.65780
Fe499      Fe  0.11015914  0.90375809  0.49712977     1.73250
Fe500      Fe  0.03002084  0.80555767  0.50002693     1.54410
O501        O  0.03138648  0.77307865  0.44911194    -0.82040
O502        O  0.07010444  0.89907043  0.04495538    -0.80340
O503        O  0.09272778  0.77808122  0.44980038    -0.84540
O504        O  0.10250693  0.78401433  0.04358430    -0.79400
O505        O  0.01544444  0.83830641  0.45716995    -0.81170
O506        O  0.15251336  0.91385224  0.04331495    -0.83920
C507        C  0.06650893  0.76399905  0.05818693     0.96850
C508        C  0.05718045  0.76420864  0.43455139     1.04290
O509        O  0.08942181  0.84422722  0.49678463    -1.12900
O510        O  0.15290631  0.91653389  0.44920737    -0.75330
O511        O  0.15775801  0.86035053  0.44182427    -0.78820
O512        O  0.03706090  0.76747811  0.04313517    -0.79510
C513        C  0.16625496  0.89600833  0.43010066     0.95750
O514        O  0.16899897  0.86543777  0.03519925    -0.77460
O515        O  0.07028919  0.90019301  0.45077961    -0.82660
C516        C  0.03832768  0.87072928  0.06316658     0.98380
C517        C  0.03450436  0.87357644  0.43998339     1.04290
O518        O  0.02132706  0.83409163  0.05082723    -0.78300
C519        C  0.17382076  0.89748541  0.05310793     1.02590
C520        C  0.45540812  0.95720345  0.24934399     0.02770
C521        C  0.46442086  0.94470578  0.21112466    -0.13380
C522        C  0.48119546  0.91867324  0.21127982     0.00270
C523        C  0.48763048  0.90449094  0.25027718    -0.11910
C524        C  0.47726756  0.91565550  0.28867237     0.02760
C525        C  0.46140449  0.94230739  0.28775701    -0.11330
H526        H  0.45848835  0.95536143  0.18145427     0.08350
H527        H  0.50191385  0.88567202  0.25072292     0.05880
H528        H  0.45365559  0.95159810  0.31701981     0.05730
C529        C  0.26733439  0.95324914  0.27945104     0.02770
C530        C  0.25030833  0.94943650  0.23921929    -0.13380
C531        C  0.27402417  0.95733906  0.20253703     0.00270
C532        C  0.31591894  0.47107459  0.20637547    -0.11910
C533        C  0.33398151  0.47761050  0.24647674     0.02760
C534        C  0.30959457  0.46842480  0.28293113    -0.11330
H535        H  0.21789104  0.93846952  0.23639100     0.08350
H536        H  0.33457129  0.47718748  0.17826042     0.05880
H537        H  0.32338757  0.47224593  0.31380079     0.05730
C538        C  0.01304861  0.66516834  0.28443710     0.02770
C539        C  0.02996067  0.68350101  0.24509780    -0.13380
C540        C  0.01970234  0.66046748  0.20784276     0.00270
C541        C  0.49413391  0.61785158  0.21132579    -0.11910
C542        C  0.47589923  0.59917206  0.25008131     0.02760
C543        C  0.48576346  0.62282426  0.28660444    -0.11330
H544        H  0.05058001  0.71619786  0.24350998     0.08350
H545        H  0.48830812  0.59879873  0.18403199     0.05880
H546        H  0.47225940  0.60820627  0.31660387     0.05730
C547        C  0.40497581  0.53752939  0.25232654     0.01920
C548        C  0.37883701  0.49479194  0.24997472     0.01920
C549        C  0.39558485  0.96870316  0.24942853     0.01920
C550        C  0.43828444  0.98508352  0.24961733     0.01920
C551        C  0.46438962  0.52777176  0.25141718     0.01920
C552        C  0.44788014  0.55416133  0.25226025     0.01920
C553        C  0.01979434  0.69954658  0.09590628    -0.09520
C554        C  0.05796134  0.73511181  0.09405481     0.06680
C555        C  0.08585511  0.74261322  0.12720937    -0.03290
C556        C  0.07384254  0.71620187  0.16249200    -0.07730
C557        C  0.03422168  0.68208324  0.16593157     0.05790
C558        C  0.50799046  0.67301584  0.13076275    -0.02760
Br559      Br  0.45468077  0.62664378  0.12744780    -0.02450
H560        H  0.49847980  0.69260178  0.07014284     0.09700
H561        H  0.09524144  0.72334217  0.18816371     0.07720
Br562      Br  0.13929610  0.79011821  0.12849604    -0.02880
C563        C  0.03574049  0.67777456  0.35986648    -0.09520
C564        C  0.02383100  0.69048699  0.32311102     0.06680
C565        C  0.02119074  0.72660915  0.32443718    -0.03290
C566        C  0.03245697  0.75012091  0.36100325    -0.07730
C567        C  0.04560555  0.73805960  0.39703082     0.05790
C568        C  0.04609477  0.70100717  0.39678770    -0.02760
Br569      Br  0.05654782  0.67922083  0.44737506    -0.02450
H570        H  0.03631270  0.64933908  0.36010880     0.09700
H571        H  0.03047400  0.77783771  0.36149816     0.07720
Br572      Br  0.99814059  0.74315954  0.27937406    -0.02880
C573        C  0.24972940  0.96565294  0.35208023    -0.09520
C574        C  0.24048171  0.93939824  0.31748585     0.06680
C575        C  0.20588550  0.89977661  0.32006375    -0.03290
C576        C  0.18219914  0.88697591  0.35683450    -0.07730
C577        C  0.19150469  0.91292133  0.39148152     0.05790
C578        C  0.22536827  0.95287316  0.38878120    -0.02760
Br579      Br  0.24122836  0.99008271  0.43506350    -0.02450
H580        H  0.27603989  0.49617616  0.35056137     0.09700
H581        H  0.15621988  0.85623121  0.35844991     0.07720
Br582      Br  0.18991404  0.86049493  0.27556801    -0.02880
C583        C  0.25659755  0.91861474  0.13530138    -0.09520
C584        C  0.25362714  0.94725073  0.16078447     0.06680
C585        C  0.22777975  0.96230975  0.14803423    -0.03290
C586        C  0.20351419  0.94675864  0.11220173    -0.07730
C587        C  0.20418671  0.91600921  0.08791646     0.05790
C588        C  0.23249691  0.90306677  0.09909231    -0.02760
Br589      Br  0.24050430  0.86447988  0.06721348    -0.02450
H590        H  0.27667117  0.90703906  0.14453032     0.09700
H591        H  0.18310780  0.95821942  0.10413139     0.07720
Br592      Br  0.22420246  0.00415046  0.17831796    -0.02880
C593        C  0.49086106  0.85280062  0.37574810    -0.09520
C594        C  0.01509605  0.88350370  0.40455706     0.06680
C595        C  0.02227586  0.92357484  0.39730848    -0.03290
C596        C  0.00802544  0.93278490  0.36036303    -0.07730
C597        C  0.48673028  0.90288330  0.32983737     0.05790
C598        C  0.47643691  0.86207846  0.33881751    -0.02760
Br599      Br  0.44114793  0.81756509  0.30306274    -0.02450
H600        H  0.48395947  0.82158567  0.38137085     0.09700
H601        H  0.01473264  0.96393989  0.35493279     0.07720
Br602      Br  0.05045933  0.96694271  0.43696819    -0.02880
C603        C  0.03402640  0.92287194  0.10711132    -0.09520
C604        C  0.02066974  0.88138434  0.09997461     0.06680
C605        C  0.49151961  0.85197158  0.12853348    -0.03290
C606        C  0.47830139  0.86478459  0.16370344    -0.07730
C607        C  0.49284905  0.90641099  0.17126440     0.05790
C608        C  0.02038044  0.93538214  0.14187254    -0.02760
Br609      Br  0.04285071  0.99281029  0.14820411    -0.02450
H610        H  0.05576432  0.94614966  0.08567978     0.09700
H611        H  0.45678187  0.84200642  0.18570411     0.07720
Br612      Br  0.46906720  0.79392694  0.12326079    -0.02880
C613        C  0.15372230  0.59727821  0.13242794    -0.09520
C614        C  0.14585674  0.62000630  0.10221385     0.06680
C615        C  0.11383038  0.62832512  0.10937327    -0.03290
C616        C  0.09081364  0.61438838  0.14666893    -0.07730
C617        C  0.09929029  0.59234004  0.17721937     0.05790
C618        C  0.13096364  0.58354334  0.16967397    -0.02760
Br619      Br  0.14303750  0.55067365  0.20748930    -0.02450
H620        H  0.17812196  0.59049253  0.12727829     0.09700
H621        H  0.06637521  0.62105861  0.15199492     0.07720
Br622      Br  0.09875277  0.65657141  0.06867362    -0.02880
C623        C  0.13318153  0.58013515  0.38877580    -0.09520
C624        C  0.14530128  0.61942618  0.40439415     0.06680
C625        C  0.13144130  0.64367325  0.38320141    -0.03290
C626        C  0.10530713  0.62781680  0.34870011    -0.07730
C627        C  0.09404905  0.58906143  0.33331549     0.05790
C628        C  0.10903075  0.56558680  0.35275062    -0.02760
Br629      Br  0.10088359  0.51566864  0.32851829    -0.02450
H630        H  0.14380252  0.56108479  0.40351273     0.09700
H631        H  0.09558597  0.64680342  0.33211941     0.07720
Br632      Br  0.14947745  0.69991816  0.39572402    -0.02880
C633        C  0.35570823  0.83897893  0.35484075    -0.09520
C634        C  0.32437335  0.83584215  0.32848783     0.06680
C635        C  0.28351782  0.80911362  0.34012987    -0.03290
C636        C  0.27450331  0.78519142  0.37666049    -0.07730
C637        C  0.30555686  0.78703970  0.40265332     0.05790
C638        C  0.34675536  0.81490048  0.39168991    -0.02760
Br639      Br  0.39218249  0.82295928  0.42586836    -0.02450
H640        H  0.38730544  0.85980066  0.34634019     0.09700
H641        H  0.24271702  0.76448374  0.38435245     0.07720
Br642      Br  0.23847568  0.80458471  0.30814690    -0.02880
C643        C  0.35443503  0.84165504  0.14451329    -0.09520
C644        C  0.32313602  0.83810945  0.17118845     0.06680
C645        C  0.28220395  0.81199439  0.16008836    -0.03290
C646        C  0.27311282  0.78798335  0.12419167    -0.07730
C647        C  0.30429991  0.78971615  0.09838229     0.05790
C648        C  0.34542681  0.81797224  0.10814351    -0.02760
Br649      Br  0.39056611  0.82723133  0.07259507    -0.02450
H650        H  0.38605904  0.86242812  0.15244559     0.09700
H651        H  0.24132318  0.76725540  0.11694843     0.07720
Br652      Br  0.23759240  0.80888494  0.19211531    -0.02880
C653        C  0.28790564  0.62267141  0.14429139    -0.09520
C654        C  0.30827757  0.62709494  0.10599193     0.06680
C655        C  0.34008383  0.61830319  0.10426727    -0.03290
C656        C  0.35250695  0.60724415  0.14117224    -0.07730
C657        C  0.33453955  0.60535103  0.18074374     0.05790
C658        C  0.30027701  0.61158026  0.18149936    -0.02760
Br659      Br  0.26549172  0.60157044  0.22989971    -0.02450
H660        H  0.26206945  0.62777625  0.14519748     0.09700
H661        H  0.37643709  0.60011179  0.13843829     0.07720
Br662      Br  0.36628178  0.61946733  0.05181701    -0.02880
C663        C  0.30494066  0.59256890  0.34080431    -0.09520
C664        C  0.34708649  0.60792229  0.33675553     0.06680
C665        C  0.37285526  0.63034612  0.37012857    -0.03290
C666        C  0.35660280  0.63946526  0.40540661    -0.07730
C667        C  0.31458248  0.62575278  0.40848270     0.05790
C668        C  0.28852569  0.60126062  0.37597600    -0.02760
Br669      Br  0.23087449  0.58170620  0.37500834    -0.02450
H670        H  0.28465941  0.57446279  0.31572408     0.09700
H671        H  0.37697703  0.65778491  0.43033186     0.07720
Br672      Br  0.43027424  0.65062554  0.36860088    -0.02880
C673        C  0.38697929  0.56450889  0.75453316     0.02770
C674        C  0.37092938  0.57253323  0.71801122    -0.13380
C675        C  0.35211541  0.59682520  0.71957682     0.00270
C676        C  0.35133720  0.61376092  0.75862679    -0.11910
C677        C  0.36231972  0.60148707  0.79607614     0.02760
C678        C  0.38108729  0.57755395  0.79384408    -0.11330
H679        H  0.37231974  0.55854338  0.68889696     0.08350
H680        H  0.34065052  0.63546527  0.76074093     0.05880
H681        H  0.38934926  0.56751547  0.82254216     0.05730
C682        C  0.33479139  0.85930266  0.78830305     0.02770
C683        C  0.32314150  0.83861163  0.74980223    -0.13380
C684        C  0.33383643  0.86039408  0.71133282     0.00270
C685        C  0.35675843  0.90312094  0.71136770    -0.11910
C686        C  0.36860551  0.92395867  0.74964082     0.02760
C687        C  0.35768356  0.90211007  0.78806882    -0.11330
H688        H  0.30644174  0.80545740  0.74974290     0.08350
H689        H  0.36594205  0.92010621  0.68172864     0.05880
H690        H  0.36751672  0.91838655  0.81761763     0.05730
Fe691      Fe  0.22228335  0.70626528  0.50227848     1.65780
Fe692      Fe  0.22608054  0.61749468  0.00399379     1.73360
Fe693      Fe  0.31504798  0.71008831  0.00390013     1.54420
O694        O  0.31793322  0.74908866  0.95575628    -0.82040
O695        O  0.26024139  0.61561615  0.55340638    -0.80340
O696        O  0.25710476  0.74509815  0.95418101    -0.84540
O697        O  0.25713001  0.74767153  0.54730869    -0.79400
O698        O  0.32133902  0.67509355  0.95802559    -0.81170
O699        O  0.18429949  0.61204980  0.54880863    -0.83920
C700        C  0.29241441  0.76100680  0.56271412     0.96850
C701        C  0.29317130  0.75911409  0.94002571     1.04290
O702        O  0.25455431  0.67797865  0.00334451    -1.12900
O703        O  0.18809930  0.61253991  0.95496436    -0.75330
O704        O  0.18290460  0.66853122  0.95692098    -0.78820
O705        O  0.31678555  0.74942156  0.54984651    -0.79510
C706        C  0.17368755  0.63440202  0.94095284     0.95750
O707        O  0.18416545  0.67096324  0.55073532    -0.77460
O708        O  0.26424344  0.61472714  0.95940064    -0.82660
C709        C  0.29515042  0.63993262  0.56810781     0.98380
C710        C  0.29920972  0.63919058  0.94424176     1.04290
O711        O  0.31904251  0.67494424  0.55217019    -0.78300
C712        C  0.17244351  0.63512869  0.56457695     1.02590
C713        C  0.07205442  0.57660740  0.79321988     0.02770
C714        C  0.09457650  0.58910004  0.75566005    -0.13380
C715        C  0.07489486  0.57884633  0.71661376     0.00270
C716        C  0.03205903  0.55720715  0.71544355    -0.11910
C717        C  0.50922495  0.54544428  0.75303126     0.02760
C718        C  0.02930580  0.55487804  0.79205578    -0.11330
H719        H  0.12760074  0.60728809  0.75693028     0.08350
H720        H  0.51641348  0.55030410  0.68537874     0.05880
H721        H  0.51179583  0.54653927  0.82122491     0.05730
Fe722      Fe  0.12806999  0.82327952  0.49286261     1.65780
Fe723      Fe  0.11016988  0.90374687  0.99713531     1.73250
Fe724      Fe  0.03003669  0.80554418  0.00002754     1.54410
O725        O  0.03141388  0.77308367  0.94910408    -0.82040
O726        O  0.07010856  0.89908934  0.54496191    -0.80340
O727        O  0.09274518  0.77806304  0.94983472    -0.84540
O728        O  0.10247983  0.78399564  0.54356054    -0.79400
O729        O  0.01545837  0.83830326  0.95718227    -0.81170
O730        O  0.15251609  0.91386519  0.54329828    -0.83920
C731        C  0.06649021  0.76400840  0.55818921     0.96850
C732        C  0.05720638  0.76420004  0.93456853     1.04290
O733        O  0.08943682  0.84421840  0.99679113    -1.12900
O734        O  0.15293001  0.91652778  0.94922317    -0.75330
O735        O  0.15776371  0.86033594  0.94182300    -0.78820
O736        O  0.03705132  0.76751246  0.54315230    -0.79510
C737        C  0.16626905  0.89599832  0.93010682     0.95750
O738        O  0.16897147  0.86542535  0.53520613    -0.77460
O739        O  0.07031210  0.90018144  0.95077500    -0.82660
C740        C  0.03832449  0.87075163  0.56316506     0.98380
C741        C  0.03452290  0.87356989  0.93998797     1.04290
O742        O  0.02131204  0.83411705  0.55081548    -0.78300
C743        C  0.17380913  0.89748502  0.55310295     1.02590
C744        C  0.45542321  0.95721445  0.74936925     0.02770
C745        C  0.46442859  0.94471716  0.71114625    -0.13380
C746        C  0.48121283  0.91869364  0.71129283     0.00270
C747        C  0.48765795  0.90451369  0.75028725    -0.11910
C748        C  0.47729516  0.91567198  0.78868634     0.02760
C749        C  0.46142805  0.94232037  0.78777893    -0.11330
H750        H  0.45848128  0.95536581  0.68147948     0.08350
H751        H  0.50194585  0.88569890  0.75072785     0.05880
H752        H  0.45368118  0.95160839  0.81704469     0.05730
C753        C  0.26733858  0.95324036  0.77944821     0.02770
C754        C  0.25031071  0.94942455  0.73921679    -0.13380
C755        C  0.27402382  0.95732157  0.70253310     0.00270
C756        C  0.31591769  0.47104831  0.70637145    -0.11910
C757        C  0.33398471  0.47759624  0.74647285     0.02760
C758        C  0.30959915  0.46841780  0.78292727    -0.11330
H759        H  0.21789361  0.93845941  0.73639036     0.08350
H760        H  0.33456788  0.47715408  0.67825603     0.05880
H761        H  0.32339368  0.47224551  0.81379690     0.05730
C762        C  0.01313817  0.66516089  0.78447131     0.02770
C763        C  0.03006981  0.68350358  0.74514307    -0.13380
C764        C  0.01974547  0.66049560  0.70787767     0.00270
C765        C  0.49412021  0.61788206  0.71132186    -0.11910
C766        C  0.47591239  0.59918281  0.75008286     0.02760
C767        C  0.48582216  0.62282035  0.78662238    -0.11330
H768        H  0.05073129  0.71619385  0.74356135     0.08350
H769        H  0.48820255  0.59886336  0.68397513     0.05880
H770        H  0.47232067  0.60819565  0.81662014     0.05730
C771        C  0.40498053  0.53752777  0.75231907     0.01920
C772        C  0.37884398  0.49478794  0.74997315     0.01920
C773        C  0.39559640  0.96870445  0.74944703     0.01920
C774        C  0.43829575  0.98509019  0.74964658     0.01920
C775        C  0.46439804  0.52777977  0.75143860     0.01920
C776        C  0.44788728  0.55416858  0.75225738     0.01920
C777        C  0.01966155  0.69970359  0.59606940    -0.09520
C778        C  0.05793472  0.73512729  0.59407269     0.06680
C779        C  0.08590393  0.74251937  0.62712842    -0.03290
C780        C  0.07389727  0.71612074  0.66242708    -0.07730
C781        C  0.03420772  0.68213699  0.66598194     0.05790
C782        C  0.50785158  0.67322338  0.63096204    -0.02760
Br783      Br  0.45430363  0.62721440  0.62803188    -0.02450
H784        H  0.49825287  0.69285494  0.57041769     0.09700
H785        H  0.09535470  0.72316865  0.68802460     0.07720
Br786      Br  0.13945837  0.78986580  0.62827331    -0.02880
C787        C  0.03577827  0.67775250  0.85991530    -0.09520
C788        C  0.02390624  0.69047627  0.82314273     0.06680
C789        C  0.02128063  0.72660783  0.82444738    -0.03290
C790        C  0.03252982  0.75011943  0.86101082    -0.07730
C791        C  0.04564377  0.73804789  0.89705546     0.05790
C792        C  0.04611562  0.70098641  0.89683379    -0.02760
Br793      Br  0.05652509  0.67919356  0.94744238    -0.02450
H794        H  0.03633462  0.64930890  0.86017246     0.09700
H795        H  0.03056030  0.77784403  0.86149019     0.07720
Br796      Br  0.99826822  0.74317285  0.77935813    -0.02880
C797        C  0.24973432  0.96564689  0.85207724    -0.09520
C798        C  0.24048737  0.93939058  0.81748442     0.06680
C799        C  0.20589450  0.89976710  0.82006607    -0.03290
C800        C  0.18221147  0.88696576  0.85683914    -0.07730
C801        C  0.19151665  0.91291223  0.89148544     0.05790
C802        C  0.22537635  0.95286655  0.88878068    -0.02760
Br803      Br  0.24123628  0.99008001  0.93505934    -0.02450
H804        H  0.27604197  0.49617187  0.85055532     0.09700
H805        H  0.15623477  0.85621962  0.85845664     0.07720
Br806      Br  0.18992337  0.86048402  0.77557191    -0.02880
C807        C  0.25659750  0.91861392  0.63528406    -0.09520
C808        C  0.25362417  0.94724089  0.66077982     0.06680
C809        C  0.22777361  0.96230030  0.64803922    -0.03290
C810        C  0.20350199  0.94675027  0.61220862    -0.07730
C811        C  0.20417706  0.91600768  0.58791209     0.05790
C812        C  0.23249620  0.90307303  0.59907382    -0.02760
Br813      Br  0.24052378  0.86451573  0.56716395    -0.02450
H814        H  0.27667663  0.90704161  0.64450178     0.09700
H815        H  0.18309116  0.95820785  0.60414681     0.07720
Br816      Br  0.22420764  0.00414617  0.67833037    -0.02880
C817        C  0.49088152  0.85280276  0.87575148    -0.09520
C818        C  0.01511575  0.88350138  0.90456439     0.06680
C819        C  0.02230088  0.92357507  0.89732018    -0.03290
C820        C  0.00805447  0.93279162  0.86037610    -0.07730
C821        C  0.48675840  0.90289410  0.82984732     0.05790
C822        C  0.47646175  0.86208723  0.83882167    -0.02760
Br823      Br  0.44117524  0.81758005  0.80305909    -0.02450
H824        H  0.48397784  0.82158664  0.88137035     0.09700
H825        H  0.01476599  0.96394852  0.85494912     0.07720
Br826      Br  0.05048833  0.96693862  0.93698356    -0.02880
C827        C  0.03399589  0.92289064  0.60708930    -0.09520
C828        C  0.02066987  0.88140611  0.59997498     0.06680
C829        C  0.49155222  0.85199423  0.62855710    -0.03290
C830        C  0.47833785  0.86480660  0.66372968    -0.07730
C831        C  0.49285791  0.90643144  0.67127168     0.05790
C832        C  0.02035287  0.93540099  0.64185338    -0.02760
Br833      Br  0.04277618  0.99282917  0.64814551    -0.02450
H834        H  0.05570614  0.94616535  0.58563623     0.09700
H835        H  0.45684431  0.84202918  0.68574830     0.07720
Br836      Br  0.46914828  0.79395330  0.62331647    -0.02880
C837        C  0.15368777  0.59727717  0.63240580    -0.09520
C838        C  0.14583611  0.62003978  0.60222120     0.06680
C839        C  0.11383580  0.62838910  0.60941798    -0.03290
C840        C  0.09082943  0.61444533  0.64671914    -0.07730
C841        C  0.09928993  0.59235850  0.67723746     0.05790
C842        C  0.13093770  0.58353314  0.66965612    -0.02760
Br843      Br  0.14298459  0.55061240  0.70742605    -0.02450
H844        H  0.17806909  0.59046976  0.62722912     0.09700
H845        H  0.06640992  0.62113760  0.65207368     0.07720
Br846      Br  0.09877717  0.65668527  0.56876116    -0.02880
C847        C  0.13321809  0.58008758  0.88877831    -0.09520
C848        C  0.14532524  0.61937181  0.90440862     0.06680
C849        C  0.13144164  0.64360827  0.88323375    -0.03290
C850        C  0.10530273  0.62774995  0.84873655    -0.07730
C851        C  0.09406058  0.58900391  0.83333660     0.05790
C852        C  0.10906148  0.56553841  0.85275555    -0.02760
Br853      Br  0.10092845  0.51563186  0.82850649    -0.02450
H854        H  0.14385305  0.56104419  0.90350391     0.09700
H855        H  0.09556593  0.64673029  0.83216909     0.07720
Br856      Br  0.14944434  0.69984252  0.89577699    -0.02880
C857        C  0.35572488  0.83897237  0.85484837    -0.09520
C858        C  0.32438869  0.83583834  0.82849976     0.06680
C859        C  0.28353362  0.80910790  0.84014226    -0.03290
C860        C  0.27452080  0.78518030  0.87666859    -0.07730
C861        C  0.30557595  0.78702588  0.90265687     0.05790
C862        C  0.34677404  0.81488925  0.89169346    -0.02760
Br863      Br  0.39220423  0.82294515  0.92586523    -0.02450
H864        H  0.38732166  0.85979531  0.84634720     0.09700
H865        H  0.24273458  0.76447078  0.88436063     0.07720
Br866      Br  0.23848980  0.80458340  0.80816601    -0.02880
C867        C  0.35443103  0.84165496  0.64452820    -0.09520
C868        C  0.32313596  0.83811909  0.67120243     0.06680
C869        C  0.28220201  0.81201922  0.66009947    -0.03290
C870        C  0.27310349  0.78801468  0.62419706    -0.07730
C871        C  0.30428591  0.78973734  0.59838756     0.05790
C872        C  0.34541640  0.81797665  0.60815499    -0.02760
Br873      Br  0.39055493  0.82721622  0.57261532    -0.02450
H874        H  0.38605684  0.86241594  0.65246468     0.09700
H875        H  0.24131192  0.76729818  0.61695085     0.07720
Br876      Br  0.23759950  0.80892014  0.69213424    -0.02880
C877        C  0.28791701  0.62279153  0.64430973    -0.09520
C878        C  0.30817755  0.62705537  0.60597437     0.06680
C879        C  0.33974844  0.61792851  0.60416782    -0.03290
C880        C  0.35207513  0.60670849  0.64103207    -0.07730
C881        C  0.33433758  0.60511640  0.68067142     0.05790
C882        C  0.30023171  0.61159862  0.68148946    -0.02760
Br883      Br  0.26548442  0.60168089  0.72990371    -0.02450
H884        H  0.26219843  0.62808014  0.64526141     0.09700
H885        H  0.37572228  0.59918343  0.63817353     0.07720
Br886      Br  0.36576558  0.61887990  0.55166243    -0.02880
C887        C  0.30496505  0.59261003  0.84074898    -0.09520
C888        C  0.34711114  0.60797135  0.83667889     0.06680
C889        C  0.37288792  0.63038809  0.87005154    -0.03290
C890        C  0.35664251  0.63948973  0.90534899    -0.07730
C891        C  0.31462078  0.62576371  0.90844924     0.05790
C892        C  0.28855747  0.60128192  0.87594153    -0.02760
Br893      Br  0.23090322  0.58170975  0.87500638    -0.02450
H894        H  0.28467478  0.57450281  0.81567505     0.09700
H895        H  0.37702321  0.65780453  0.93027245     0.07720
Br896      Br  0.43030820  0.65067976  0.86850309    -0.02880
C897        C  0.88698474  0.06452151  0.25456647     0.02770
C898        C  0.87102255  0.07265541  0.21804057    -0.13380
C899        C  0.85224045  0.09697478  0.21964454     0.00270
C900        C  0.85138746  0.11381973  0.25872067    -0.11910
C901        C  0.86231192  0.10146723  0.29615351     0.02760
C902        C  0.88105107  0.07750774  0.29389589    -0.11330
H903        H  0.87245394  0.05874704  0.18887845     0.08350
H904        H  0.84067931  0.13550773  0.26085725     0.05880
H905        H  0.88926724  0.06741302  0.32258544     0.05730
C906        C  0.83477756  0.35930324  0.28828866     0.02770
C907        C  0.82313334  0.33860939  0.24978900    -0.13380
C908        C  0.83383055  0.36038889  0.21131740     0.00270
C909        C  0.85674988  0.40311658  0.21135001    -0.11910
C910        C  0.86859025  0.42395739  0.24962237     0.02760
C911        C  0.85766527  0.40211083  0.28805165    -0.11330
H912        H  0.80643663  0.30545510  0.24973253     0.08350
H913        H  0.86593700  0.42010010  0.18171010     0.05880
H914        H  0.86749458  0.41838920  0.31759975     0.05730
Fe915      Fe  0.72231015  0.20623011  0.00227477     1.65780
Fe916      Fe  0.72602865  0.11751839  0.50397889     1.73360
Fe917      Fe  0.81500978  0.21009798  0.50390813     1.54420
O918        O  0.81790586  0.24909890  0.45575709    -0.82040
O919        O  0.76030708  0.11561047  0.05342799    -0.80340
O920        O  0.75708496  0.24512878  0.45418463    -0.84540
O921        O  0.75715104  0.24764090  0.04730408    -0.79400
O922        O  0.82130033  0.17509420  0.45804364    -0.81170
O923        O  0.68435054  0.11202302  0.04882775    -0.83920
C924        C  0.79243626  0.26098346  0.06271086     0.96850
C925        C  0.79314946  0.25913289  0.44002667     1.04290
O926        O  0.75451605  0.17800192  0.50334269    -1.12900
O927        O  0.68806470  0.11258432  0.45494784    -0.75330
O928        O  0.68286870  0.16857408  0.45692266    -0.78820
O929        O  0.81681419  0.24940488  0.04984547    -0.79510
C930        C  0.67365564  0.13444998  0.44094329     0.95750
O931        O  0.68418936  0.17092422  0.05072719    -0.77460
O932        O  0.76418902  0.11474229  0.45939630    -0.82660
C933        C  0.79522447  0.13993450  0.06811006     0.98380
C934        C  0.79916522  0.13919424  0.44425509     1.04290
O935        O  0.81910339  0.17494028  0.05215210    -0.78300
C936        C  0.67247682  0.13509488  0.06457884     1.02590
C937        C  0.57204537  0.07665635  0.29319933     0.02770
C938        C  0.59456852  0.08913705  0.25564048    -0.13380
C939        C  0.57489008  0.07884281  0.21659413     0.00270
C940        C  0.53205351  0.05717761  0.21542265    -0.11910
C941        C  0.00921735  0.04543638  0.25301041     0.02760
C942        C  0.52929773  0.05490662  0.29203490    -0.11330
H943        H  0.62759153  0.10734106  0.25691148     0.08350
H944        H  0.01640904  0.05024273  0.18535652     0.05880
H945        H  0.01178712  0.04657910  0.32120330     0.05730
Fe946      Fe  0.62808990  0.32327879  0.99287446     1.65780
Fe947      Fe  0.61015912  0.40375807  0.49712978     1.73250
Fe948      Fe  0.53002080  0.30555764  0.50002691     1.54410
O949        O  0.53138643  0.27307869  0.44911185    -0.82040
O950        O  0.57010437  0.39907039  0.04495535    -0.80340
O951        O  0.59272770  0.27808120  0.44980032    -0.84540
O952        O  0.60250689  0.28401432  0.04358424    -0.79400
O953        O  0.51544440  0.33830644  0.45717001    -0.81170
O954        O  0.65251330  0.41385219  0.04331498    -0.83920
C955        C  0.56650887  0.26399898  0.05818683     0.96850
C956        C  0.55718038  0.26420866  0.43455129     1.04290
O957        O  0.58942177  0.34422720  0.49678461    -1.12900
O958        O  0.65290632  0.41653390  0.44920740    -0.75330
O959        O  0.65775794  0.36035051  0.44182421    -0.78820
O960        O  0.53706082  0.26747799  0.04313507    -0.79510
C961        C  0.66625493  0.39600833  0.43010064     0.95750
O962        O  0.66899894  0.36543776  0.03519919    -0.77460
O963        O  0.57028920  0.40019300  0.45077959    -0.82660
C964        C  0.53832764  0.37072922  0.06316658     0.98380
C965        C  0.53450434  0.37357646  0.43998341     1.04290
O966        O  0.52132705  0.33409156  0.05082727    -0.78300
C967        C  0.67382072  0.39748537  0.05310792     1.02590
C968        C  0.95540816  0.45720348  0.24934399     0.02770
C969        C  0.96442090  0.44470579  0.21112466    -0.13380
C970        C  0.98119547  0.41867324  0.21127983     0.00270
C971        C  0.98763049  0.40449092  0.25027719    -0.11910
C972        C  0.97726757  0.41565550  0.28867238     0.02760
C973        C  0.96140452  0.44230740  0.28775702    -0.11330
H974        H  0.95848839  0.45536144  0.18145427     0.08350
H975        H  0.00191384  0.38567199  0.25072293     0.05880
H976        H  0.95365562  0.45159812  0.31701981     0.05730
C977        C  0.76733439  0.45324912  0.27945104     0.02770
C978        C  0.75030834  0.44943647  0.23921928    -0.13380
C979        C  0.77402417  0.45733898  0.20253702     0.00270
C980        C  0.81591895  0.97107470  0.20637545    -0.11910
C981        C  0.83398152  0.97761058  0.24647671     0.02760
C982        C  0.80959458  0.96842484  0.28293111    -0.11330
H983        H  0.71789105  0.43846952  0.23639098     0.08350
H984        H  0.83457130  0.97718763  0.17826040     0.05880
H985        H  0.82338758  0.97224594  0.31380077     0.05730
C986        C  0.51304838  0.16516839  0.28443694     0.02770
C987        C  0.52996035  0.18350101  0.24509758    -0.13380
C988        C  0.51970220  0.16046739  0.20784258     0.00270
C989        C  0.99413395  0.11785150  0.21132577    -0.11910
C990        C  0.97589922  0.09917205  0.25008129     0.02760
C991        C  0.98576335  0.12282429  0.28660436    -0.11330
H992        H  0.55057955  0.21619788  0.24350973     0.08350
H993        H  0.98830840  0.09879854  0.18403213     0.05880
H994        H  0.97225929  0.10820633  0.31660381     0.05730
C995        C  0.90497582  0.03752943  0.25232650     0.01920
C996        C  0.87883701  0.99479199  0.24997469     0.01920
C997        C  0.89558487  0.46870314  0.24942855     0.01920
C998        C  0.93828447  0.48508353  0.24961732     0.01920
C999        C  0.96438961  0.02777175  0.25141722     0.01920
C1000       C  0.94788015  0.05416133  0.25226027     0.01920
C1001       C  0.51979471  0.19954602  0.09590566    -0.09520
C1002       C  0.55796133  0.23511173  0.09405466     0.06680
C1003       C  0.58585486  0.24261354  0.12720954    -0.03290
C1004       C  0.57384231  0.21620215  0.16249212    -0.07730
C1005       C  0.53422170  0.18208305  0.16593132     0.05790
C1006       C  0.00799082  0.17301523  0.13076213    -0.02760
Br1007     Br  0.95468185  0.12664208  0.12744607    -0.02450
H1008       H  0.99848040  0.19260102  0.07014200     0.09700
H1009       H  0.59524103  0.22334277  0.18816407     0.07720
Br1010     Br  0.63929546  0.29011908  0.12849667    -0.02880
C1011       C  0.53574041  0.17777465  0.35986627    -0.09520
C1012       C  0.52383083  0.19048706  0.32311086     0.06680
C1013       C  0.52119056  0.22660921  0.32443708    -0.03290
C1014       C  0.53245684  0.25012096  0.36100316    -0.07730
C1015       C  0.54560548  0.23805966  0.39703069     0.05790
C1016       C  0.54609472  0.20100723  0.39678751    -0.02760
Br1017     Br  0.55654781  0.17922086  0.44737482    -0.02450
H1018       H  0.53631265  0.14933918  0.36010855     0.09700
H1019       H  0.53047385  0.27783775  0.36149811     0.07720
Br1020     Br  0.49814032  0.24315958  0.27937404    -0.02880
C1021       C  0.74972938  0.46565294  0.35208022    -0.09520
C1022       C  0.74048170  0.43939824  0.31748583     0.06680
C1023       C  0.70588547  0.39977661  0.32006373    -0.03290
C1024       C  0.68219911  0.38697592  0.35683448    -0.07730
C1025       C  0.69150466  0.41292134  0.39148151     0.05790
C1026       C  0.72536825  0.45287317  0.38878119    -0.02760
Br1027     Br  0.74122834  0.49008272  0.43506348    -0.02450
H1028       H  0.77603990  0.99617617  0.35056138     0.09700
H1029       H  0.65621984  0.35623122  0.35844989     0.07720
Br1030     Br  0.68991403  0.36049492  0.27556800    -0.02880
C1031       C  0.75659749  0.41861463  0.13530139    -0.09520
C1032       C  0.75362714  0.44725066  0.16078446     0.06680
C1033       C  0.72777980  0.46230974  0.14803421    -0.03290
C1034       C  0.70351422  0.44675863  0.11220171    -0.07730
C1035       C  0.70418668  0.41600915  0.08791645     0.05790
C1036       C  0.73249684  0.40306667  0.09909232    -0.02760
Br1037     Br  0.74050414  0.36447970  0.06721354    -0.02450
H1038       H  0.77667108  0.40703892  0.14453034     0.09700
H1039       H  0.68310786  0.45821945  0.10413136     0.07720
Br1040     Br  0.72420262  0.50415054  0.17831790    -0.02880
C1041       C  0.99086104  0.35280062  0.37574813    -0.09520
C1042       C  0.51509604  0.38350371  0.40455708     0.06680
C1043       C  0.52227587  0.42357486  0.39730849    -0.03290
C1044       C  0.50802546  0.43278491  0.36036304    -0.07730
C1045       C  0.98673028  0.40288330  0.32983738     0.05790
C1046       C  0.97643690  0.36207846  0.33881754    -0.02760
Br1047     Br  0.94114791  0.31756509  0.30306277    -0.02450
H1048       H  0.98395944  0.32158566  0.38137089     0.09700
H1049       H  0.51473267  0.46393991  0.35493278     0.07720
Br1050     Br  0.55045935  0.46694273  0.43696818    -0.02880
C1051       C  0.53402637  0.42287190  0.10711131    -0.09520
C1052       C  0.52066971  0.38138430  0.09997462     0.06680
C1053       C  0.99151957  0.35197155  0.12853348    -0.03290
C1054       C  0.97830136  0.36478457  0.16370344    -0.07730
C1055       C  0.99284906  0.40641098  0.17126442     0.05790
C1056       C  0.52038042  0.43538211  0.14187253    -0.02760
Br1057     Br  0.54285068  0.49281027  0.14820406    -0.02450
H1058       H  0.55576427  0.44614962  0.08567975     0.09700
H1059       H  0.95678182  0.34200641  0.18570410     0.07720
Br1060     Br  0.96906710  0.29392691  0.12326075    -0.02880
C1061       C  0.65372229  0.09727817  0.13242799    -0.09520
C1062       C  0.64585675  0.12000628  0.10221391     0.06680
C1063       C  0.61383038  0.12832511  0.10937334    -0.03290
C1064       C  0.59081364  0.11438835  0.14666900    -0.07730
C1065       C  0.59929029  0.09233999  0.17721942     0.05790
C1066       C  0.63096362  0.08354329  0.16967401    -0.02760
Br1067     Br  0.64303746  0.05067356  0.20748932    -0.02450
H1068       H  0.67812195  0.09049248  0.12727833     0.09700
H1069       H  0.56637521  0.12105858  0.15199499     0.07720
Br1070     Br  0.59875279  0.15657142  0.06867371    -0.02880
C1071       C  0.63318154  0.08013510  0.38877585    -0.09520
C1072       C  0.64530128  0.11942612  0.40439420     0.06680
C1073       C  0.63144130  0.14367320  0.38320146    -0.03290
C1074       C  0.60530712  0.12781674  0.34870017    -0.07730
C1075       C  0.59404903  0.08906138  0.33331554     0.05790
C1076       C  0.60903075  0.06558676  0.35275066    -0.02760
Br1077     Br  0.60088360  0.01566860  0.32851831    -0.02450
H1078       H  0.64380253  0.06108474  0.40351278     0.09700
H1079       H  0.59558596  0.14680337  0.33211947     0.07720
Br1080     Br  0.64947749  0.19991812  0.39572405    -0.02880
C1081       C  0.85570821  0.33897890  0.35484077    -0.09520
C1082       C  0.82437333  0.33584211  0.32848784     0.06680
C1083       C  0.78351780  0.30911359  0.34012987    -0.03290
C1084       C  0.77450328  0.28519138  0.37666049    -0.07730
C1085       C  0.80555682  0.28703967  0.40265333     0.05790
C1086       C  0.84675532  0.31490045  0.39168993    -0.02760
Br1087     Br  0.89218246  0.32295925  0.42586839    -0.02450
H1088       H  0.88730541  0.35980063  0.34634022     0.09700
H1089       H  0.74271699  0.26448371  0.38435244     0.07720
Br1090     Br  0.73847567  0.30458468  0.30814688    -0.02880
C1091       C  0.85443503  0.34165503  0.14451330    -0.09520
C1092       C  0.82313602  0.33810944  0.17118846     0.06680
C1093       C  0.78220395  0.31199439  0.16008836    -0.03290
C1094       C  0.77311282  0.28798335  0.12419166    -0.07730
C1095       C  0.80429991  0.28971615  0.09838229     0.05790
C1096       C  0.84542681  0.31797223  0.10814352    -0.02760
Br1097     Br  0.89056611  0.32723134  0.07259506    -0.02450
H1098       H  0.88605904  0.36242810  0.15244559     0.09700
H1099       H  0.74132318  0.26725541  0.11694842     0.07720
Br1100     Br  0.73759239  0.30888496  0.19211528    -0.02880
C1101       C  0.78790550  0.12267099  0.14429138    -0.09520
C1102       C  0.80827777  0.12709507  0.10599202     0.06680
C1103       C  0.84008477  0.11830438  0.10426756    -0.03290
C1104       C  0.85250822  0.10724584  0.14117263    -0.07730
C1105       C  0.83454012  0.10535176  0.18074394     0.05790
C1106       C  0.80027707  0.11158015  0.18149941    -0.02760
Br1107     Br  0.76549169  0.10157002  0.22989975    -0.02450
H1108       H  0.76206893  0.12777524  0.14519735     0.09700
H1109       H  0.87643924  0.10011471  0.13843904     0.07720
Br1110     Br  0.86628329  0.11946924  0.05181746    -0.02880
C1111       C  0.80494066  0.09256880  0.34080449    -0.09520
C1112       C  0.84708649  0.10792217  0.33675574     0.06680
C1113       C  0.87285525  0.13034601  0.37012877    -0.03290
C1114       C  0.85660279  0.13946517  0.40540678    -0.07730
C1115       C  0.81458247  0.12575272  0.40848284     0.05790
C1116       C  0.78852569  0.10126055  0.37597615    -0.02760
Br1117     Br  0.73087450  0.08170619  0.37500844    -0.02450
H1118       H  0.78465942  0.07446270  0.31572424     0.09700
H1119       H  0.87697702  0.15778482  0.43033203     0.07720
Br1120     Br  0.93027423  0.15062541  0.36860109    -0.02880
C1121       C  0.88697932  0.06450894  0.75453319     0.02770
C1122       C  0.87092957  0.07253351  0.71801125    -0.13380
C1123       C  0.85211566  0.09682552  0.71957695     0.00270
C1124       C  0.85133731  0.11376105  0.75862698    -0.11910
C1125       C  0.86231973  0.10148705  0.79607628     0.02760
C1126       C  0.88108725  0.07755388  0.79384415    -0.11330
H1127       H  0.87232001  0.05854383  0.68889688     0.08350
H1128       H  0.84065057  0.13546536  0.76074118     0.05880
H1129       H  0.88934914  0.06751529  0.82254220     0.05730
C1130       C  0.83479138  0.35930264  0.78830306     0.02770
C1131       C  0.82314148  0.33861161  0.74980224    -0.13380
C1132       C  0.83383643  0.36039407  0.71133283     0.00270
C1133       C  0.85675846  0.40312092  0.71136771    -0.11910
C1134       C  0.86860555  0.42395865  0.74964083     0.02760
C1135       C  0.85768359  0.40211005  0.78806883    -0.11330
H1136       H  0.80644170  0.30545738  0.74974290     0.08350
H1137       H  0.86594209  0.42010620  0.68172866     0.05880
H1138       H  0.86751675  0.41838653  0.81761764     0.05730
Fe1139     Fe  0.72228333  0.20626525  0.50227851     1.65780
Fe1140     Fe  0.72608057  0.11749466  0.00399390     1.73360
Fe1141     Fe  0.81504799  0.21008831  0.00390014     1.54420
O1142       O  0.81793320  0.24908868  0.95575633    -0.82040
O1143       O  0.76024139  0.11561617  0.55340653    -0.80340
O1144       O  0.75710470  0.24509807  0.95418099    -0.84540
O1145       O  0.75713002  0.24767154  0.54730868    -0.79400
O1146       O  0.82133900  0.17509357  0.95802558    -0.81170
O1147       O  0.68429946  0.11204979  0.54880868    -0.83920
C1148       C  0.79241441  0.26100679  0.56271413     0.96850
C1149       C  0.79317127  0.25911406  0.94002572     1.04290
O1150       O  0.75455432  0.17797863  0.00334456    -1.12900
O1151       O  0.68809935  0.11253986  0.95496441    -0.75330
O1152       O  0.68290457  0.16853113  0.95692106    -0.78820
O1153       O  0.81678553  0.24942153  0.54984655    -0.79510
C1154       C  0.67368756  0.13440195  0.94095291     0.95750
O1155       O  0.68416546  0.17096325  0.55073539    -0.77460
O1156       O  0.76424349  0.11472710  0.95940080    -0.82660
C1157       C  0.79515046  0.13993264  0.56810788     0.98380
C1158       C  0.79920974  0.13919055  0.94424185     1.04290
O1159       O  0.81904254  0.17494422  0.55217019    -0.78300
C1160       C  0.67244350  0.13512869  0.56457701     1.02590
C1161       C  0.57205441  0.07660733  0.79321995     0.02770
C1162       C  0.59457649  0.08909996  0.75566011    -0.13380
C1163       C  0.57489485  0.07884626  0.71661382     0.00270
C1164       C  0.53205902  0.05720707  0.71544361    -0.11910
C1165       C  0.00922495  0.04544425  0.75303133     0.02760
C1166       C  0.52930578  0.05487801  0.79205584    -0.11330
H1167       H  0.62760073  0.10728800  0.75693034     0.08350
H1168       H  0.01641348  0.05030406  0.68537881     0.05880
H1169       H  0.01179582  0.04653925  0.82122498     0.05730
Fe1170     Fe  0.62806995  0.32327951  0.49286255     1.65780
Fe1171     Fe  0.61016984  0.40374684  0.99713531     1.73250
Fe1172     Fe  0.53003664  0.30554415  0.00002752     1.54410
O1173       O  0.53141383  0.27308370  0.94910400    -0.82040
O1174       O  0.57010849  0.39908929  0.54496188    -0.80340
O1175       O  0.59274510  0.27806302  0.94983464    -0.84540
O1176       O  0.60247980  0.28399565  0.54356050    -0.79400
O1177       O  0.51545832  0.33830328  0.95718232    -0.81170
O1178       O  0.65251603  0.41386514  0.54329832    -0.83920
C1179       C  0.56649017  0.26400833  0.55818912     0.96850
C1180       C  0.55720631  0.26420006  0.93456843     1.04290
O1181       O  0.58943678  0.34421838  0.99679110    -1.12900
O1182       O  0.65293001  0.41652778  0.94922318    -0.75330
O1183       O  0.65776364  0.36033592  0.94182294    -0.78820
O1184       O  0.53705125  0.26751233  0.54315219    -0.79510
C1185       C  0.66626902  0.39599831  0.93010680     0.95750
O1186       O  0.66897145  0.36542535  0.53520607    -0.77460
O1187       O  0.57031209  0.40018142  0.95077497    -0.82660
C1188       C  0.53832445  0.37075158  0.56316507     0.98380
C1189       C  0.53452288  0.37356989  0.93998798     1.04290
O1190       O  0.52131204  0.33411698  0.55081553    -0.78300
C1191       C  0.67380909  0.39748498  0.55310294     1.02590
C1192       C  0.95542326  0.45721448  0.74936925     0.02770
C1193       C  0.96442863  0.44471718  0.71114626    -0.13380
C1194       C  0.98121285  0.41869364  0.71129284     0.00270
C1195       C  0.98765795  0.40451368  0.75028726    -0.11910
C1196       C  0.97729517  0.41567199  0.78868635     0.02760
C1197       C  0.96142808  0.44232039  0.78777894    -0.11330
H1198       H  0.95848132  0.45536582  0.68147948     0.08350
H1199       H  0.00194584  0.38569888  0.75072787     0.05880
H1200       H  0.95368121  0.45160841  0.81704468     0.05730
C1201       C  0.76733858  0.45324035  0.77944821     0.02770
C1202       C  0.75031072  0.44942453  0.73921678    -0.13380
C1203       C  0.77402382  0.45732150  0.70253309     0.00270
C1204       C  0.81591770  0.97104840  0.70637144    -0.11910
C1205       C  0.83398471  0.97759629  0.74647283     0.02760
C1206       C  0.80959915  0.96841782  0.78292727    -0.11330
H1207       H  0.71789363  0.43845943  0.73639034     0.08350
H1208       H  0.83456789  0.97715419  0.67825602     0.05880
H1209       H  0.82339369  0.97224552  0.81379689     0.05730
C1210       C  0.51313790  0.16516094  0.78447113     0.02770
C1211       C  0.53006944  0.18350358  0.74514284    -0.13380
C1212       C  0.51974532  0.16049549  0.70787747     0.00270
C1213       C  0.99412024  0.11788200  0.71132185    -0.11910
C1214       C  0.97591239  0.09918280  0.75008285     0.02760
C1215       C  0.98582208  0.12282038  0.78662234    -0.11330
H1216       H  0.55073078  0.21619387  0.74356108     0.08350
H1217       H  0.98820276  0.09886321  0.68397524     0.05880
H1218       H  0.97232060  0.10819570  0.81662010     0.05730
C1219       C  0.90498054  0.03752780  0.75231905     0.01920
C1220       C  0.87884398  0.99478797  0.74997313     0.01920
C1221       C  0.89559643  0.46870443  0.74944705     0.01920
C1222       C  0.93829579  0.48509020  0.74964658     0.01920
C1223       C  0.96439803  0.02777976  0.75143865     0.01920
C1224       C  0.94788728  0.05416858  0.75225740     0.01920
C1225       C  0.51966197  0.19970296  0.59606872    -0.09520
C1226       C  0.55793474  0.23512721  0.59407254     0.06680
C1227       C  0.58590368  0.24251974  0.62712863    -0.03290
C1228       C  0.57389702  0.21612107  0.66242724    -0.07730
C1229       C  0.53420775  0.18213678  0.66598168     0.05790
C1230       C  0.00785185  0.17322292  0.63096158    -0.02760
Br1231     Br  0.95430441  0.12721313  0.62803059    -0.02450
H1232       H  0.99825329  0.19285436  0.57041707     0.09700
H1233       H  0.59535425  0.22316934  0.68802502     0.07720
Br1234     Br  0.63945767  0.28986679  0.62827404    -0.02880
C1235       C  0.53577817  0.17775259  0.85991508    -0.09520
C1236       C  0.52390605  0.19047634  0.82314255     0.06680
C1237       C  0.52128042  0.22660789  0.82444728    -0.03290
C1238       C  0.53252966  0.25011948  0.86101073    -0.07730
C1239       C  0.54564369  0.23804795  0.89705532     0.05790
C1240       C  0.54611556  0.20098648  0.89683358    -0.02760
Br1241     Br  0.55652508  0.17919360  0.94744212    -0.02450
H1242       H  0.53633456  0.14930901  0.86017219     0.09700
H1243       H  0.53056012  0.27784407  0.86149014     0.07720
Br1244     Br  0.49826792  0.24317289  0.77935812    -0.02880
C1245       C  0.74973431  0.46564690  0.85207722    -0.09520
C1246       C  0.74048736  0.43939058  0.81748441     0.06680
C1247       C  0.70589448  0.39976711  0.82006605    -0.03290
C1248       C  0.68221144  0.38696577  0.85683912    -0.07730
C1249       C  0.69151662  0.41291224  0.89148542     0.05790
C1250       C  0.72537632  0.45286656  0.88878066    -0.02760
Br1251     Br  0.74123626  0.49008002  0.93505933    -0.02450
H1252       H  0.77604197  0.99617186  0.85055533     0.09700
H1253       H  0.65623474  0.35621963  0.85845661     0.07720
Br1254     Br  0.68992336  0.36048402  0.77557190    -0.02880
C1255       C  0.75659744  0.41861382  0.63528408    -0.09520
C1256       C  0.75362418  0.44724083  0.66077982     0.06680
C1257       C  0.72777367  0.46230031  0.64803919    -0.03290
C1258       C  0.70350203  0.44675028  0.61220859    -0.07730
C1259       C  0.70417703  0.41600764  0.58791209     0.05790
C1260       C  0.73249613  0.40307293  0.59907384    -0.02760
Br1261     Br  0.74052360  0.36451553  0.56716403    -0.02450
H1262       H  0.77667653  0.40704146  0.64450181     0.09700
H1263       H  0.68309125  0.45820790  0.60414676     0.07720
Br1264     Br  0.72420782  0.50414627  0.67833031    -0.02880
C1265       C  0.99088149  0.35280276  0.87575151    -0.09520
C1266       C  0.51511572  0.38350138  0.90456441     0.06680
C1267       C  0.52230086  0.42357507  0.89732018    -0.03290
C1268       C  0.50805445  0.43279162  0.86037610    -0.07730
C1269       C  0.98675840  0.40289411  0.82984733     0.05790
C1270       C  0.97646174  0.36208723  0.83882169    -0.02760
Br1271     Br  0.94117522  0.31758005  0.80305912    -0.02450
H1272       H  0.98397781  0.32158664  0.88137039     0.09700
H1273       H  0.51476598  0.46394852  0.85494911     0.07720
Br1274     Br  0.55048833  0.46693863  0.93698355    -0.02880
C1275       C  0.53399593  0.42289060  0.60708935    -0.09520
C1276       C  0.52066984  0.38140606  0.59997500     0.06680
C1277       C  0.99155218  0.35199421  0.62855710    -0.03290
C1278       C  0.97833783  0.36480659  0.66372968    -0.07730
C1279       C  0.99285792  0.40643143  0.67127169     0.05790
C1280       C  0.52035292  0.43540096  0.64185344    -0.02760
Br1281     Br  0.54277632  0.49282914  0.64814565    -0.02450
H1282       H  0.55570624  0.44616531  0.58563632     0.09700
H1283       H  0.95684427  0.34202917  0.68574829     0.07720
Br1284     Br  0.96914817  0.29395327  0.62331643    -0.02880
C1285       C  0.65368775  0.09727714  0.63240584    -0.09520
C1286       C  0.64583610  0.12003977  0.60222127     0.06680
C1287       C  0.61383580  0.12838909  0.60941806    -0.03290
C1288       C  0.59082942  0.11444529  0.64671922    -0.07730
C1289       C  0.59928992  0.09235844  0.67723752     0.05790
C1290       C  0.63093769  0.08353308  0.66965616    -0.02760
Br1291     Br  0.64298456  0.05061231  0.70742605    -0.02450
H1292       H  0.67806907  0.09046972  0.62722915     0.09700
H1293       H  0.56640991  0.12113756  0.65207377     0.07720
Br1294     Br  0.59877717  0.15668528  0.56876127    -0.02880
C1295       C  0.63321810  0.08008750  0.88877836    -0.09520
C1296       C  0.64532525  0.11937174  0.90440868     0.06680
C1297       C  0.63144165  0.14360820  0.88323381    -0.03290
C1298       C  0.60530272  0.12774988  0.84873662    -0.07730
C1299       C  0.59406057  0.08900383  0.83333666     0.05790
C1300       C  0.60906149  0.06553834  0.85275560    -0.02760
Br1301     Br  0.60092846  0.01563181  0.82850651    -0.02450
H1302       H  0.64385307  0.06104412  0.90350395     0.09700
H1303       H  0.59556592  0.14673022  0.83216918     0.07720
Br1304     Br  0.64944438  0.19984246  0.89577703    -0.02880
C1305       C  0.85572485  0.33897234  0.85484839    -0.09520
C1306       C  0.82438867  0.33583831  0.82849977     0.06680
C1307       C  0.78353360  0.30910787  0.84014226    -0.03290
C1308       C  0.77452077  0.28518027  0.87666860    -0.07730
C1309       C  0.80557592  0.28702586  0.90265688     0.05790
C1310       C  0.84677401  0.31488922  0.89169348    -0.02760
Br1311     Br  0.89220420  0.32294513  0.92586526    -0.02450
H1312       H  0.88732164  0.35979529  0.84634723     0.09700
H1313       H  0.74273454  0.26447075  0.88436062     0.07720
Br1314     Br  0.73848978  0.30458337  0.80816600    -0.02880
C1315       C  0.85443102  0.34165496  0.64452820    -0.09520
C1316       C  0.82313595  0.33811908  0.67120243     0.06680
C1317       C  0.78220200  0.31201923  0.66009946    -0.03290
C1318       C  0.77310349  0.28801469  0.62419706    -0.07730
C1319       C  0.80428590  0.28973735  0.59838756     0.05790
C1320       C  0.84541639  0.31797665  0.60815499    -0.02760
Br1321     Br  0.89055492  0.32721623  0.57261531    -0.02450
H1322       H  0.88605683  0.36241593  0.65246469     0.09700
H1323       H  0.74131191  0.26729819  0.61695084     0.07720
Br1324     Br  0.73759948  0.30892017  0.69213422    -0.02880
C1325       C  0.78791689  0.12279124  0.64430975    -0.09520
C1326       C  0.80817767  0.12705546  0.60597445     0.06680
C1327       C  0.83974908  0.11792934  0.60416804    -0.03290
C1328       C  0.85207600  0.10670966  0.64103236    -0.07730
C1329       C  0.83433797  0.10511690  0.68067158     0.05790
C1330       C  0.80023175  0.11159855  0.68148952    -0.02760
Br1331     Br  0.76548439  0.10168059  0.72990376    -0.02450
H1332       H  0.76219805  0.12807944  0.64526135     0.09700
H1333       H  0.87572378  0.09918547  0.63817406     0.07720
Br1334     Br  0.86576660  0.11888123  0.55166276    -0.02880
C1335       C  0.80496505  0.09260995  0.84074913    -0.09520
C1336       C  0.84711115  0.10797127  0.83667904     0.06680
C1337       C  0.87288792  0.13038801  0.87005168    -0.03290
C1338       C  0.85664252  0.13948966  0.90534912    -0.07730
C1339       C  0.81462079  0.12576365  0.90844936     0.05790
C1340       C  0.78855747  0.10128186  0.87594166    -0.02760
Br1341     Br  0.73090323  0.08170974  0.87500650    -0.02450
H1342       H  0.78467478  0.07450273  0.81567518     0.09700
H1343       H  0.87702321  0.15780447  0.93027258     0.07720
Br1344     Br  0.93030820  0.15067968  0.86850324    -0.02880
C1345       C  0.88698470  0.56452147  0.25456645     0.02770
C1346       C  0.87102239  0.57265519  0.21804055    -0.13380
C1347       C  0.85224024  0.59697453  0.21964444     0.00270
C1348       C  0.85138736  0.61381962  0.25872053    -0.11910
C1349       C  0.86231190  0.60146723  0.29615340     0.02760
C1350       C  0.88105108  0.57750778  0.29389583    -0.11330
H1351       H  0.87245371  0.55874668  0.18887851     0.08350
H1352       H  0.84067926  0.63550765  0.26085706     0.05880
H1353       H  0.88926732  0.56741315  0.32258540     0.05730
C1354       C  0.83477759  0.85930326  0.28828866     0.02770
C1355       C  0.82313338  0.83860941  0.24978900    -0.13380
C1356       C  0.83383058  0.86038891  0.21131740     0.00270
C1357       C  0.85674988  0.90311660  0.21135000    -0.11910
C1358       C  0.86859024  0.92395741  0.24962236     0.02760
C1359       C  0.85766527  0.90211085  0.28805164    -0.11330
H1360       H  0.80643668  0.80545512  0.24973253     0.08350
H1361       H  0.86593700  0.92010011  0.18171009     0.05880
H1362       H  0.86749458  0.91838922  0.31759974     0.05730
Fe1363     Fe  0.72231017  0.70623015  0.00227474     1.65780
Fe1364     Fe  0.72602863  0.61751840  0.50397881     1.73360
Fe1365     Fe  0.81500979  0.71009798  0.50390812     1.54420
O1366       O  0.81790588  0.74909889  0.45575706    -0.82040
O1367       O  0.76030708  0.61561046  0.05342788    -0.80340
O1368       O  0.75708501  0.74512884  0.45418464    -0.84540
O1369       O  0.75715104  0.74764090  0.04730408    -0.79400
O1370       O  0.82130035  0.67509418  0.45804365    -0.81170
O1371       O  0.68435055  0.61202304  0.04882770    -0.83920
C1372       C  0.79243627  0.76098347  0.06271085     0.96850
C1373       C  0.79314950  0.75913291  0.44002666     1.04290
O1374       O  0.75451605  0.67800193  0.50334265    -1.12900
O1375       O  0.68806466  0.61258436  0.45494780    -0.75330
O1376       O  0.68286873  0.66857416  0.45692259    -0.78820
O1377       O  0.81681420  0.74940491  0.04984544    -0.79510
C1378       C  0.67365563  0.63445003  0.44094324     0.95750
O1379       O  0.68418936  0.67092424  0.05072713    -0.77460
O1380       O  0.76418897  0.61474232  0.45939618    -0.82660
C1381       C  0.79522443  0.63993449  0.06811001     0.98380
C1382       C  0.79916520  0.63919425  0.44425502     1.04290
O1383       O  0.81910336  0.67494030  0.05215210    -0.78300
C1384       C  0.67247682  0.63509490  0.06457878     1.02590
C1385       C  0.57204539  0.57665640  0.29319927     0.02770
C1386       C  0.59456854  0.58913712  0.25564042    -0.13380
C1387       C  0.57489010  0.57884289  0.21659407     0.00270
C1388       C  0.53205353  0.55717771  0.21542260    -0.11910
C1389       C  0.00921735  0.54543639  0.25301035     0.02760
C1390       C  0.52929776  0.55490664  0.29203485    -0.11330
H1391       H  0.62759155  0.60734113  0.25691142     0.08350
H1392       H  0.01640902  0.55024275  0.18535646     0.05880
H1393       H  0.01178713  0.54657913  0.32120323     0.05730
Fe1394     Fe  0.62808996  0.82327881  0.99287454     1.65780
Fe1395     Fe  0.61015915  0.90375811  0.49712979     1.73250
Fe1396     Fe  0.53002085  0.80555768  0.50002693     1.54410
O1397       O  0.53138650  0.77307866  0.44911195    -0.82040
O1398       O  0.57010446  0.89907044  0.04495539    -0.80340
O1399       O  0.59272780  0.77808123  0.44980042    -0.84540
O1400       O  0.60250693  0.78401432  0.04358431    -0.79400
O1401       O  0.51544446  0.83830641  0.45716994    -0.81170
O1402       O  0.65251339  0.91385226  0.04331495    -0.83920
C1403       C  0.56650893  0.76399907  0.05818695     0.96850
C1404       C  0.55718047  0.76420864  0.43455142     1.04290
O1405       O  0.58942182  0.84422724  0.49678465    -1.12900
O1406       O  0.65290632  0.91653390  0.44920738    -0.75330
O1407       O  0.65775802  0.86035055  0.44182429    -0.78820
O1408       O  0.53706092  0.76747816  0.04313520    -0.79510
C1409       C  0.66625497  0.89600835  0.43010067     0.95750
O1410       O  0.66899897  0.86543777  0.03519928    -0.77460
O1411       O  0.57028920  0.90019302  0.45077961    -0.82660
C1412       C  0.53832768  0.87072929  0.06316658     0.98380
C1413       C  0.53450437  0.87357645  0.43998338     1.04290
O1414       O  0.52132706  0.83409165  0.05082721    -0.78300
C1415       C  0.67382078  0.89748542  0.05310795     1.02590
C1416       C  0.95540815  0.95720347  0.24934400     0.02770
C1417       C  0.96442090  0.94470579  0.21112466    -0.13380
C1418       C  0.98119547  0.91867324  0.21127982     0.00270
C1419       C  0.98763049  0.90449093  0.25027719    -0.11910
C1420       C  0.97726756  0.91565550  0.28867238     0.02760
C1421       C  0.96140451  0.94230740  0.28775702    -0.11330
H1422       H  0.95848840  0.95536145  0.18145428     0.08350
H1423       H  0.00191384  0.88567200  0.25072292     0.05880
H1424       H  0.95365561  0.95159811  0.31701981     0.05730
C1425       C  0.76733440  0.95324913  0.27945106     0.02770
C1426       C  0.75030835  0.94943650  0.23921931    -0.13380
C1427       C  0.77402418  0.95733904  0.20253704     0.00270
C1428       C  0.81591893  0.47107462  0.20637543    -0.11910
C1429       C  0.83398150  0.47761053  0.24647670     0.02760
C1430       C  0.80959456  0.46842482  0.28293110    -0.11330
H1431       H  0.71789106  0.93846953  0.23639101     0.08350
H1432       H  0.83457128  0.47718753  0.17826039     0.05880
H1433       H  0.82338756  0.47224594  0.31380076     0.05730
C1434       C  0.51304871  0.66516833  0.28443717     0.02770
C1435       C  0.52996081  0.68350101  0.24509789    -0.13380
C1436       C  0.51970240  0.66046752  0.20784283     0.00270
C1437       C  0.99413393  0.61785154  0.21132578    -0.11910
C1438       C  0.97589921  0.59917205  0.25008129     0.02760
C1439       C  0.98576339  0.62282427  0.28660440    -0.11330
H1440       H  0.55058021  0.71619786  0.24351007     0.08350
H1441       H  0.98830825  0.59879864  0.18403205     0.05880
H1442       H  0.97225933  0.60820629  0.31660383     0.05730
C1443       C  0.90497580  0.53752940  0.25232651     0.01920
C1444       C  0.87883699  0.49479196  0.24997469     0.01920
C1445       C  0.89558487  0.96870316  0.24942855     0.01920
C1446       C  0.93828447  0.98508353  0.24961734     0.01920
C1447       C  0.96438960  0.52777175  0.25141718     0.01920
C1448       C  0.94788013  0.55416132  0.25226025     0.01920
C1449       C  0.51979418  0.69954681  0.09590652    -0.09520
C1450       C  0.55796133  0.73511183  0.09405486     0.06680
C1451       C  0.58585520  0.74261309  0.12720928    -0.03290
C1452       C  0.57384263  0.71620176  0.16249194    -0.07730
C1453       C  0.53422167  0.68208332  0.16593166     0.05790
C1454       C  0.00799063  0.67301555  0.13076245    -0.02760
Br1455     Br  0.95468129  0.62664297  0.12744697    -0.02450
H1456       H  0.99848009  0.69260142  0.07014244     0.09700
H1457       H  0.59524161  0.72334192  0.18816356     0.07720
Br1458     Br  0.63929636  0.79011785  0.12849577    -0.02880
C1459       C  0.53574053  0.67777454  0.35986656    -0.09520
C1460       C  0.52383107  0.69048697  0.32311109     0.06680
C1461       C  0.52119082  0.72660914  0.32443721    -0.03290
C1462       C  0.53245703  0.75012090  0.36100328    -0.07730
C1463       C  0.54560559  0.73805959  0.39703086     0.05790
C1464       C  0.54609479  0.70100715  0.39678777    -0.02760
Br1465     Br  0.55654782  0.67922082  0.44737515    -0.02450
H1466       H  0.53631274  0.64933905  0.36010890     0.09700
H1467       H  0.53047407  0.77783771  0.36149816     0.07720
Br1468     Br  0.49814070  0.74315953  0.27937406    -0.02880
C1469       C  0.74972941  0.96565295  0.35208024    -0.09520
C1470       C  0.74048172  0.93939824  0.31748586     0.06680
C1471       C  0.70588550  0.89977661  0.32006376    -0.03290
C1472       C  0.68219915  0.88697592  0.35683452    -0.07730
C1473       C  0.69150470  0.91292134  0.39148154     0.05790
C1474       C  0.72536828  0.95287317  0.38878122    -0.02760
Br1475     Br  0.74122837  0.99008272  0.43506351    -0.02450
H1476       H  0.77603988  0.49617616  0.35056135     0.09700
H1477       H  0.65621988  0.85623122  0.35844993     0.07720
Br1478     Br  0.68991404  0.86049493  0.27556802    -0.02880
C1479       C  0.75659756  0.91861473  0.13530139    -0.09520
C1480       C  0.75362716  0.94725072  0.16078449     0.06680
C1481       C  0.72777978  0.96230976  0.14803425    -0.03290
C1482       C  0.70351421  0.94675865  0.11220175    -0.07730
C1483       C  0.70418672  0.91600922  0.08791647     0.05790
C1484       C  0.73249693  0.90306678  0.09909231    -0.02760
Br1485     Br  0.74050434  0.86447992  0.06721345    -0.02450
H1486       H  0.77667118  0.90703906  0.14453032     0.09700
H1487       H  0.68310782  0.95821943  0.10413142     0.07720
Br1488     Br  0.72420253  0.00415050  0.17831797    -0.02880
C1489       C  0.99086105  0.85280061  0.37574811    -0.09520
C1490       C  0.51509606  0.88350371  0.40455706     0.06680
C1491       C  0.52227587  0.92357485  0.39730847    -0.03290
C1492       C  0.50802544  0.93278490  0.36036303    -0.07730
C1493       C  0.98673028  0.90288329  0.32983738     0.05790
C1494       C  0.97643691  0.86207846  0.33881752    -0.02760
Br1495     Br  0.94114792  0.81756508  0.30306275    -0.02450
H1496       H  0.98395946  0.82158566  0.38137086     0.09700
H1497       H  0.51473264  0.96393990  0.35493278     0.07720
Br1498     Br  0.55045933  0.96694272  0.43696818    -0.02880
C1499       C  0.53402636  0.92287194  0.10711130    -0.09520
C1500       C  0.52066974  0.88138435  0.09997461     0.06680
C1501       C  0.99151958  0.85197157  0.12853346    -0.03290
C1502       C  0.97830136  0.86478459  0.16370342    -0.07730
C1503       C  0.99284906  0.90641099  0.17126441     0.05790
C1504       C  0.52038039  0.93538214  0.14187251    -0.02760
Br1505     Br  0.54285062  0.99281029  0.14820403    -0.02450
H1506       H  0.55576426  0.94614966  0.08567973     0.09700
H1507       H  0.95678182  0.84200642  0.18570407     0.07720
Br1508     Br  0.96906711  0.79392693  0.12326073    -0.02880
C1509       C  0.65372230  0.59727820  0.13242794    -0.09520
C1510       C  0.64585676  0.62000631  0.10221385     0.06680
C1511       C  0.61383040  0.62832515  0.10937328    -0.03290
C1512       C  0.59081366  0.61438841  0.14666894    -0.07730
C1513       C  0.59929030  0.59234005  0.17721937     0.05790
C1514       C  0.63096363  0.58354333  0.16967396    -0.02760
Br1515     Br  0.64303747  0.55067362  0.20748929    -0.02450
H1516       H  0.67812195  0.59049250  0.12727828     0.09700
H1517       H  0.56637525  0.62105866  0.15199493     0.07720
Br1518     Br  0.59875281  0.65657145  0.06867364    -0.02880
C1519       C  0.63318154  0.58013515  0.38877581    -0.09520
C1520       C  0.64530127  0.61942617  0.40439415     0.06680
C1521       C  0.63144130  0.64367325  0.38320141    -0.03290
C1522       C  0.60530713  0.62781679  0.34870011    -0.07730
C1523       C  0.59404906  0.58906143  0.33331549     0.05790
C1524       C  0.60903076  0.56558680  0.35275062    -0.02760
Br1525     Br  0.60088360  0.51566865  0.32851829    -0.02450
H1526       H  0.64380252  0.56108479  0.40351274     0.09700
H1527       H  0.59558598  0.64680342  0.33211940     0.07720
Br1528     Br  0.64947743  0.69991815  0.39572403    -0.02880
C1529       C  0.85570824  0.83897892  0.35484076    -0.09520
C1530       C  0.82437336  0.83584214  0.32848784     0.06680
C1531       C  0.78351783  0.80911362  0.34012988    -0.03290
C1532       C  0.77450332  0.78519142  0.37666049    -0.07730
C1533       C  0.80555686  0.78703970  0.40265332     0.05790
C1534       C  0.84675536  0.81490046  0.39168992    -0.02760
Br1535     Br  0.89218249  0.82295926  0.42586837    -0.02450
H1536       H  0.88730545  0.85980064  0.34634020     0.09700
H1537       H  0.74271702  0.76448374  0.38435245     0.07720
Br1538     Br  0.73847570  0.80458472  0.30814690    -0.02880
C1539       C  0.85443505  0.84165505  0.14451328    -0.09520
C1540       C  0.82313604  0.83810945  0.17118846     0.06680
C1541       C  0.78220397  0.81199438  0.16008838    -0.03290
C1542       C  0.77311284  0.78798334  0.12419168    -0.07730
C1543       C  0.80429992  0.78971616  0.09838229     0.05790
C1544       C  0.84542683  0.81797225  0.10814350    -0.02760
Br1545     Br  0.89056612  0.82723137  0.07259504    -0.02450
H1546       H  0.88605906  0.86242814  0.15244557     0.09700
H1547       H  0.74132320  0.76725538  0.11694845     0.07720
Br1548     Br  0.73759242  0.80888492  0.19211534    -0.02880
C1549       C  0.78790557  0.62267120  0.14429136    -0.09520
C1550       C  0.80827767  0.62709500  0.10599196     0.06680
C1551       C  0.84008429  0.61830376  0.10426739    -0.03290
C1552       C  0.85250756  0.60724496  0.14117241    -0.07730
C1553       C  0.83453982  0.60535137  0.18074382     0.05790
C1554       C  0.80027703  0.61158020  0.18149937    -0.02760
Br1555     Br  0.76549169  0.60157023  0.22989971    -0.02450
H1556       H  0.76206920  0.62777576  0.14519739     0.09700
H1557       H  0.87643812  0.60011319  0.13843864     0.07720
Br1558     Br  0.86628252  0.61946825  0.05181722    -0.02880
C1559       C  0.80494065  0.59256885  0.34080438    -0.09520
C1560       C  0.84708648  0.60792223  0.33675562     0.06680
C1561       C  0.87285524  0.63034607  0.37012865    -0.03290
C1562       C  0.85660278  0.63946521  0.40540668    -0.07730
C1563       C  0.81458246  0.62575275  0.40848275     0.05790
C1564       C  0.78852568  0.60126058  0.37597606    -0.02760
Br1565     Br  0.73087448  0.58170619  0.37500836    -0.02450
H1566       H  0.78465940  0.57446275  0.31572414     0.09700
H1567       H  0.87697701  0.65778486  0.43033193     0.07720
Br1568     Br  0.93027422  0.65062547  0.36860097    -0.02880
C1569       C  0.88697928  0.56450888  0.75453316     0.02770
C1570       C  0.87092937  0.57253323  0.71801123    -0.13380
C1571       C  0.85211540  0.59682520  0.71957683     0.00270
C1572       C  0.85133719  0.61376091  0.75862680    -0.11910
C1573       C  0.86231971  0.60148706  0.79607614     0.02760
C1574       C  0.88108728  0.57755394  0.79384408    -0.11330
H1575       H  0.87231973  0.55854338  0.68889697     0.08350
H1576       H  0.84065051  0.63546527  0.76074095     0.05880
H1577       H  0.88934925  0.56751546  0.82254216     0.05730
C1578       C  0.83479139  0.85930266  0.78830305     0.02770
C1579       C  0.82314151  0.83861163  0.74980223    -0.13380
C1580       C  0.83383645  0.86039409  0.71133282     0.00270
C1581       C  0.85675845  0.90312094  0.71136770    -0.11910
C1582       C  0.86860554  0.92395867  0.74964082     0.02760
C1583       C  0.85768358  0.90211007  0.78806882    -0.11330
H1584       H  0.80644174  0.80545740  0.74974289     0.08350
H1585       H  0.86594208  0.92010622  0.68172865     0.05880
H1586       H  0.86751674  0.91838655  0.81761763     0.05730
Fe1587     Fe  0.72228334  0.70626528  0.50227848     1.65780
Fe1588     Fe  0.72608056  0.61749469  0.00399382     1.73360
Fe1589     Fe  0.81504800  0.71008832  0.00390012     1.54420
O1590       O  0.81793322  0.74908868  0.95575629    -0.82040
O1591       O  0.76024138  0.61561615  0.55340640    -0.80340
O1592       O  0.75710475  0.74509813  0.95418099    -0.84540
O1593       O  0.75713001  0.74767153  0.54730870    -0.79400
O1594       O  0.82133902  0.67509358  0.95802557    -0.81170
O1595       O  0.68429948  0.61204981  0.54880865    -0.83920
C1596       C  0.79241441  0.76100680  0.56271412     0.96850
C1597       C  0.79317130  0.75911409  0.94002571     1.04290
O1598       O  0.75455433  0.67797866  0.00334452    -1.12900
O1599       O  0.68809934  0.61253991  0.95496437    -0.75330
O1600       O  0.68290460  0.66853120  0.95692100    -0.78820
O1601       O  0.81678554  0.74942156  0.54984651    -0.79510
C1602       C  0.67368757  0.63440201  0.94095286     0.95750
O1603       O  0.68416544  0.67096325  0.55073532    -0.77460
O1604       O  0.76424348  0.61472714  0.95940069    -0.82660
C1605       C  0.79515041  0.63993262  0.56810783     0.98380
C1606       C  0.79920974  0.63919058  0.94424178     1.04290
O1607       O  0.81904250  0.67494424  0.55217021    -0.78300
C1608       C  0.67244350  0.63512871  0.56457696     1.02590
C1609       C  0.57205443  0.57660740  0.79321990     0.02770
C1610       C  0.59457651  0.58910005  0.75566007    -0.13380
C1611       C  0.57489487  0.57884635  0.71661378     0.00270
C1612       C  0.53205904  0.55720715  0.71544356    -0.11910
C1613       C  0.00922495  0.54544428  0.75303125     0.02760
C1614       C  0.52930580  0.55487803  0.79205579    -0.11330
H1615       H  0.62760074  0.60728811  0.75693030     0.08350
H1616       H  0.01641347  0.55030410  0.68537872     0.05880
H1617       H  0.01179582  0.54653928  0.82122490     0.05730
Fe1618     Fe  0.62807001  0.82327954  0.49286263     1.65780
Fe1619     Fe  0.61016989  0.90374688  0.99713532     1.73250
Fe1620     Fe  0.53003670  0.80554419  0.00002754     1.54410
O1621       O  0.53141390  0.77308366  0.94910410    -0.82040
O1622       O  0.57010856  0.89908934  0.54496191    -0.80340
O1623       O  0.59274521  0.77806306  0.94983472    -0.84540
O1624       O  0.60247984  0.78399567  0.54356057    -0.79400
O1625       O  0.51545839  0.83830325  0.95718225    -0.81170
O1626       O  0.65251610  0.91386522  0.54329830    -0.83920
C1627       C  0.56649023  0.76400841  0.55818923     0.96850
C1628       C  0.55720640  0.76420004  0.93456854     1.04290
O1629       O  0.58943683  0.84421841  0.99679114    -1.12900
O1630       O  0.65293001  0.91652778  0.94922317    -0.75330
O1631       O  0.65776373  0.86033596  0.94182303    -0.78820
O1632       O  0.53705133  0.76751247  0.54315230    -0.79510
C1633       C  0.66626906  0.89599833  0.93010684     0.95750
O1634       O  0.66897148  0.86542538  0.53520615    -0.77460
O1635       O  0.57031210  0.90018145  0.95077501    -0.82660
C1636       C  0.53832448  0.87075164  0.56316506     0.98380
C1637       C  0.53452291  0.87356989  0.93998796     1.04290
O1638       O  0.52131204  0.83411705  0.55081548    -0.78300
C1639       C  0.67380914  0.89748504  0.55310297     1.02590
C1640       C  0.95542324  0.95721447  0.74936926     0.02770
C1641       C  0.96442861  0.94471718  0.71114626    -0.13380
C1642       C  0.98121286  0.91869365  0.71129283     0.00270
C1643       C  0.98765797  0.90451370  0.75028725    -0.11910
C1644       C  0.97729518  0.91567199  0.78868635     0.02760
C1645       C  0.96142807  0.94232038  0.78777894    -0.11330
H1646       H  0.95848130  0.95536582  0.68147949     0.08350
H1647       H  0.00194586  0.88569891  0.75072786     0.05880
H1648       H  0.95368119  0.95160840  0.81704469     0.05730
C1649       C  0.76733859  0.95324035  0.77944823     0.02770
C1650       C  0.75031073  0.94942455  0.73921680    -0.13380
C1651       C  0.77402383  0.95732156  0.70253311     0.00270
C1652       C  0.81591768  0.47104830  0.70637143    -0.11910
C1653       C  0.83398470  0.47759624  0.74647283     0.02760
C1654       C  0.80959914  0.46841780  0.78292726    -0.11330
H1655       H  0.71789363  0.93845943  0.73639038     0.08350
H1656       H  0.83456787  0.47715406  0.67825602     0.05880
H1657       H  0.82339367  0.47224552  0.81379689     0.05730
C1658       C  0.51313817  0.66516089  0.78447132     0.02770
C1659       C  0.53006981  0.68350358  0.74514308    -0.13380
C1660       C  0.51974548  0.66049560  0.70787768     0.00270
C1661       C  0.99412020  0.61788206  0.71132185    -0.11910
C1662       C  0.97591238  0.59918281  0.75008285     0.02760
C1663       C  0.98582215  0.62282035  0.78662238    -0.11330
H1664       H  0.55073130  0.71619385  0.74356136     0.08350
H1665       H  0.98820255  0.59886335  0.68397513     0.05880
H1666       H  0.97232066  0.60819565  0.81662013     0.05730
C1667       C  0.90498052  0.53752777  0.75231907     0.01920
C1668       C  0.87884397  0.49478794  0.74997314     0.01920
C1669       C  0.89559642  0.96870445  0.74944705     0.01920
C1670       C  0.93829577  0.98509020  0.74964660     0.01920
C1671       C  0.96439803  0.52777977  0.75143860     0.01920
C1672       C  0.94788727  0.55416857  0.75225738     0.01920
C1673       C  0.51966155  0.69970361  0.59606942    -0.09520
C1674       C  0.55793473  0.73512730  0.59407271     0.06680
C1675       C  0.58590394  0.74251938  0.62712843    -0.03290
C1676       C  0.57389728  0.71612075  0.66242709    -0.07730
C1677       C  0.53420773  0.68213700  0.66598196     0.05790
C1678       C  0.00785158  0.67322337  0.63096203    -0.02760
Br1679     Br  0.95430363  0.62721438  0.62803185    -0.02450
H1680       H  0.99825286  0.69285492  0.57041767     0.09700
H1681       H  0.59535471  0.72316865  0.68802461     0.07720
Br1682     Br  0.63945838  0.78986580  0.62827333    -0.02880
C1683       C  0.53577828  0.67775250  0.85991531    -0.09520
C1684       C  0.52390625  0.69047627  0.82314274     0.06680
C1685       C  0.52128063  0.72660782  0.82444740    -0.03290
C1686       C  0.53252982  0.75011942  0.86101084    -0.07730
C1687       C  0.54564378  0.73804789  0.89705547     0.05790
C1688       C  0.54611564  0.70098641  0.89683380    -0.02760
Br1689     Br  0.55652512  0.67919357  0.94744238    -0.02450
H1690       H  0.53633464  0.64930891  0.86017247     0.09700
H1691       H  0.53056030  0.77784403  0.86149020     0.07720
Br1692     Br  0.49826822  0.74317284  0.77935815    -0.02880
C1693       C  0.74973433  0.96564690  0.85207725    -0.09520
C1694       C  0.74048738  0.93939058  0.81748444     0.06680
C1695       C  0.70589451  0.89976710  0.82006608    -0.03290
C1696       C  0.68221148  0.88696576  0.85683916    -0.07730
C1697       C  0.69151666  0.91291224  0.89148545     0.05790
C1698       C  0.72537636  0.95286656  0.88878069    -0.02760
Br1699     Br  0.74123629  0.99008002  0.93505935    -0.02450
H1700       H  0.77604195  0.49617186  0.85055531     0.09700
H1701       H  0.65623478  0.85621962  0.85845665     0.07720
Br1702     Br  0.68992338  0.86048402  0.77557192    -0.02880
C1703       C  0.75659751  0.91861393  0.63528407    -0.09520
C1704       C  0.75362419  0.94724089  0.66077984     0.06680
C1705       C  0.72777364  0.96230033  0.64803924    -0.03290
C1706       C  0.70350202  0.94675030  0.61220863    -0.07730
C1707       C  0.70417707  0.91600771  0.58791210     0.05790
C1708       C  0.73249621  0.90307305  0.59907383    -0.02760
Br1709     Br  0.74052378  0.86451575  0.56716395    -0.02450
H1710       H  0.77667663  0.90704160  0.64450179     0.09700
H1711       H  0.68309119  0.95820789  0.60414683     0.07720
Br1712     Br  0.72420770  0.00414622  0.67833039    -0.02880
C1713       C  0.99088151  0.85280276  0.87575149    -0.09520
C1714       C  0.51511576  0.88350139  0.90456439     0.06680
C1715       C  0.52230088  0.92357507  0.89732017    -0.03290
C1716       C  0.50805446  0.93279162  0.86037610    -0.07730
C1717       C  0.98675841  0.90289411  0.82984733     0.05790
C1718       C  0.97646175  0.86208723  0.83882167    -0.02760
Br1719     Br  0.94117524  0.81758005  0.80305909    -0.02450
H1720       H  0.98397782  0.82158664  0.88137036     0.09700
H1721       H  0.51476598  0.96394852  0.85494911     0.07720
Br1722     Br  0.55048833  0.96693863  0.93698354    -0.02880
C1723       C  0.53399588  0.92289064  0.60708930    -0.09520
C1724       C  0.52066986  0.88140611  0.59997498     0.06680
C1725       C  0.99155224  0.85199424  0.62855711    -0.03290
C1726       C  0.97833787  0.86480661  0.66372969    -0.07730
C1727       C  0.99285792  0.90643145  0.67127168     0.05790
C1728       C  0.52035286  0.93540098  0.64185338    -0.02760
Br1729     Br  0.54277617  0.99282916  0.64814552    -0.02450
H1730       H  0.55570614  0.94616535  0.58563623     0.09700
H1731       H  0.95684434  0.84202919  0.68574831     0.07720
Br1732     Br  0.96914830  0.79395331  0.62331649    -0.02880
C1733       C  0.65368779  0.59727721  0.63240582    -0.09520
C1734       C  0.64583611  0.62003980  0.60222122     0.06680
C1735       C  0.61383579  0.62838910  0.60941799    -0.03290
C1736       C  0.59082942  0.61444533  0.64671916    -0.07730
C1737       C  0.59928994  0.59235852  0.67723748     0.05790
C1738       C  0.63093773  0.58353317  0.66965615    -0.02760
Br1739     Br  0.64298463  0.55061246  0.70742608    -0.02450
H1740       H  0.67806912  0.59046980  0.62722915     0.09700
H1741       H  0.56640991  0.62113759  0.65207369     0.07720
Br1742     Br  0.59877714  0.65668524  0.56876116    -0.02880
C1743       C  0.63321810  0.58008756  0.88877833    -0.09520
C1744       C  0.64532526  0.61937180  0.90440864     0.06680
C1745       C  0.63144166  0.64360826  0.88323377    -0.03290
C1746       C  0.60530274  0.62774995  0.84873657    -0.07730
C1747       C  0.59406058  0.58900390  0.83333662     0.05790
C1748       C  0.60906149  0.56553840  0.85275557    -0.02760
Br1749     Br  0.60092844  0.51563185  0.82850650    -0.02450
H1750       H  0.64385305  0.56104418  0.90350393     0.09700
H1751       H  0.59556595  0.64673029  0.83216911     0.07720
Br1752     Br  0.64944437  0.69984251  0.89577700    -0.02880
C1753       C  0.85572488  0.83897237  0.85484838    -0.09520
C1754       C  0.82438869  0.83583833  0.82849975     0.06680
C1755       C  0.78353362  0.80910789  0.84014225    -0.03290
C1756       C  0.77452080  0.78518029  0.87666859    -0.07730
C1757       C  0.80557595  0.78702588  0.90265687     0.05790
C1758       C  0.84677404  0.81488925  0.89169347    -0.02760
Br1759     Br  0.89220423  0.82294517  0.92586525    -0.02450
H1760       H  0.88732166  0.85979532  0.84634721     0.09700
H1761       H  0.74273457  0.76447077  0.88436061     0.07720
Br1762     Br  0.73848980  0.80458338  0.80816599    -0.02880
C1763       C  0.85443103  0.84165496  0.64452820    -0.09520
C1764       C  0.82313597  0.83811910  0.67120242     0.06680
C1765       C  0.78220202  0.81201924  0.66009946    -0.03290
C1766       C  0.77310350  0.78801470  0.62419705    -0.07730
C1767       C  0.80428591  0.78973735  0.59838756     0.05790
C1768       C  0.84541640  0.81797665  0.60815499    -0.02760
Br1769     Br  0.89055494  0.82721621  0.57261532    -0.02450
H1770       H  0.88605684  0.86241593  0.65246469     0.09700
H1771       H  0.74131192  0.76729821  0.61695084     0.07720
Br1772     Br  0.73759951  0.80892018  0.69213423    -0.02880
C1773       C  0.78791700  0.62279152  0.64430975    -0.09520
C1774       C  0.80817754  0.62705537  0.60597439     0.06680
C1775       C  0.83974844  0.61792852  0.60416783    -0.03290
C1776       C  0.85207513  0.60670851  0.64103209    -0.07730
C1777       C  0.83433758  0.60511640  0.68067144     0.05790
C1778       C  0.80023170  0.61159861  0.68148948    -0.02760
Br1779     Br  0.76548441  0.60168087  0.72990372    -0.02450
H1780       H  0.76219841  0.62808013  0.64526142     0.09700
H1781       H  0.87572230  0.59918347  0.63817354     0.07720
Br1782     Br  0.86576558  0.61887993  0.55166245    -0.02880
C1783       C  0.80496505  0.59261003  0.84074900    -0.09520
C1784       C  0.84711114  0.60797135  0.83667890     0.06680
C1785       C  0.87288793  0.63038809  0.87005154    -0.03290
C1786       C  0.85664252  0.63948973  0.90534899    -0.07730
C1787       C  0.81462079  0.62576371  0.90844925     0.05790
C1788       C  0.78855747  0.60128192  0.87594155    -0.02760
Br1789     Br  0.73090322  0.58170975  0.87500642    -0.02450
H1790       H  0.78467477  0.57450280  0.81567507     0.09700
H1791       H  0.87702322  0.65780453  0.93027245     0.07720
Br1792     Br  0.93030820  0.65067976  0.86850309    -0.02880
loop_ 
_geom_bond_atom_site_label_1 
_geom_bond_atom_site_label_2 
_geom_bond_distance 
_geom_bond_site_symmetry_2 
_ccdc_geom_bond_type 
C1            C2   1.403       .  A
C1            C6   1.401       .  A
C1           C99   1.480       .  S
C2            C3   1.411       .  A
C2            H7   1.081       .  S
C3            C4   1.404       .  A
C3          C209   1.504       .  S
C4            C5   1.403       .  A
C4            H8   1.080       .  S
C5            C6   1.399       .  A
C5          C216   1.479       .  S
C6            H9   1.084       .  S
C10          C11   1.402       .  A
C10          C15   1.401       .  A
C10         C186   1.478       .  S
C11          C12   1.402       .  A
C11          H16   1.084       .  S
C12          C13   1.399       .  A
C12         C196   1.472       .  S
C13          C14   1.399       .  A
C13          H17   1.084       .  S
C14          C15   1.402       .  A
C14         C101   1.474       .  S
C15          H18   1.084       .  S
Fe19         O35   2.060       .  S
Fe19         O25   2.051       .  S
Fe19        O256   2.058   1_554  S
Fe19        O248   2.055   1_554  S
Fe19        O254   1.975       .  S
Fe20         O31   2.058       .  S
Fe20         O36   2.057       .  S
Fe20        O247   2.051       .  S
Fe20        O251   2.051       .  S
Fe20         O30   1.978       .  S
Fe21         O26   2.064       .  S
Fe21         O22   2.070       .  S
Fe21        O263   2.065       .  S
Fe21        O257   2.065       .  S
Fe21         O30   1.982       .  S
O22          C29   1.269       .  A
O23        Fe244   2.051       .  S
O23          C37   1.265       .  A
O24        Fe243   2.055       .  S
O24          C29   1.270       .  A
O25          C28   1.266       .  A
O26          C38   1.268       .  A
O27        Fe244   2.051       .  S
O27          C40   1.266       .  A
C28         C199   1.481       .  S
C28          O33   1.267       .  A
C29         C189   1.485       .  S
O30        Fe243   1.975       .  S
O31          C34   1.268       .  A
O32        Fe243   2.058       .  S
O32          C34   1.265       .  A
O33        Fe245   2.065       .  S
C34         C176   1.488       .  S
O35          C40   1.266       .  A
O36          C38   1.266       .  A
C37         C206   1.462       .  S
C37          O39   1.269       .  A
C38         C219   1.478       .  S
O39        Fe245   2.065       .  S
C40         C166   1.472       .  S
C41          C42   1.395       .  A
C41          C46   1.400       .  A
C41         C179   1.465       .  S
C42          C43   1.397       .  A
C42          H47   1.084       .  S
C43          C44   1.403       .  A
C43         C169   1.476       .  S
C44         C941   1.401       .  A
C44         H944   1.084       .  S
C45         C940   1.401       .  A
C45         C942   1.403       .  A
C45         C103   1.479       .  S
C46         C941   1.403       .  A
C46         H945   1.084       .  S
H48         C940   1.084       .  S
H49         C942   1.084       .  S
Fe50         O66   2.076   1_556  S
Fe50         O56   2.055   1_556  S
Fe50        O287   2.051       .  S
Fe50        O279   2.081       .  S
Fe50        O285   1.978       .  S
Fe51         O62   2.085       .  S
Fe51         O67   2.058       .  S
Fe51        O278   2.083       .  S
Fe51        O282   2.059       .  S
Fe51         O61   1.975       .  S
Fe52         O57   2.074       .  S
Fe52         O53   2.051       .  S
Fe52        O294   2.060       .  S
Fe52        O288   2.079       .  S
Fe52         O61   1.977       .  S
O53          C60   1.264       .  A
O54        Fe275   2.083   1_554  S
O54          C68   1.274       .  A
O55        Fe274   2.081       .  S
O55          C60   1.270       .  A
O56          C59   1.265       .  A
O57          C69   1.270       .  A
O58        Fe275   2.059   1_554  S
O58          C71   1.269       .  A
C59         C106   1.483       .  S
C59          O64   1.274       .  A
C60         C119   1.473       .  S
O61        Fe274   1.978       .  S
O62          C65   1.271       .  A
O63        Fe274   2.051       .  S
O63          C65   1.267       .  A
O64        Fe276   2.079       .  S
C65         C129   1.479       .  S
O66          C71   1.269       .  A
O67          C69   1.268       .  A
C68         C156   1.497       .  S
C68          O70   1.266       .  A
C69         C146   1.482       .  S
O70        Fe276   2.060       .  S
C71         C139   1.495       .  S
C72          C73   1.405       .  A
C72          C77   1.398       .  A
C72         C102   1.482       .  S
C73          C74   1.407       .  A
C73          H78   1.083       .  S
C74          C75   1.408       .  A
C74         C159   1.492       .  S
C75          C76   1.408       .  A
C75          H79   1.083       .  S
C76          C77   1.402       .  A
C76         C149   1.487       .  S
C77          H80   1.084       .  S
C81          C82   1.402       .  A
C81         C534   1.406       .  A
C81         C126   1.486       .  S
C82          C83   1.402       .  A
C82          H87   1.083       .  S
C83         C532   1.403       .  A
C83         C136   1.484       .  S
C84          C85   1.406       .  A
C84         C531   1.403       .  A
C84          H88   1.084       .  S
C85          C86   1.404       .  A
C85         C100   1.486       .  S
C86         C529   1.406       .  A
C86          H89   1.084       .  S
C90          C91   1.406       .  A
C90         C991   1.405   1_455  A
C90         C116   1.488       .  S
C91          C92   1.408       .  A
C91          H96   1.082       .  S
C92         C989   1.406   1_455  A
C92         C109   1.502       .  S
C93          C94   1.404       .  A
C93         C988   1.406       .  A
C93          H97   1.080       .  S
C94          C95   1.401       .  A
C94         C104   1.488       .  S
C95         C986   1.405       .  A
C95          H98   1.083       .  S
C99         C100   1.413   1_545  A
C99         C104   1.416       .  A
C100        C549   1.409       .  A
C101        C102   1.410       .  A
C101        C548   1.409       .  A
C102        C551   1.410       .  A
C103        C104   1.412       .  A
C103        C550   1.410   1_545  A
C105        C106   1.397       .  A
C105       C1006   1.395       .  A
C105       H1008   1.084   1_455  S
C106        C107   1.414       .  A
C107        C108   1.403       .  A
C107       Br114   1.920       .  S
C108        C109   1.409       .  A
C108        H113   1.083       .  S
C109       C1006   1.417       .  A
C110       C1001   1.395       .  A
C110       C1005   1.417       .  A
C110       Br111   1.903       .  S
H112       C1001   1.084       .  S
C115        C116   1.409       .  A
C115        C120   1.403       .  A
C115        H122   1.082       .  S
C116        C117   1.415       .  A
C117        C118   1.398       .  A
C117       Br124   1.923   1_455  S
C118        C119   1.402       .  A
C118        H123   1.084       .  S
C119        C120   1.406       .  A
C120       Br121   1.919       .  S
C125        C126   1.407       .  A
C125        C130   1.405       .  A
C125        H580   1.084       .  S
C126        C127   1.414       .  A
C127        C128   1.395       .  A
C127       Br134   1.923       .  S
C128        C129   1.402       .  A
C128        H133   1.084       .  S
C129        C130   1.411       .  A
C130       Br131   1.919       .  S
H132        C573   1.084       .  S
C135        C136   1.403       .  A
C135        C140   1.403       .  A
C135        H142   1.084       .  S
C136        C137   1.408       .  A
C137        C138   1.396       .  A
C137       Br144   1.916       .  S
C138        C139   1.409       .  A
C138        H143   1.083       .  S
C139        C140   1.421       .  A
C140       Br141   1.922       .  S
C145        C150   1.401       .  A
C145       C1042   1.406       .  A
C145        H152   1.083       .  S
C146        C147   1.411       .  A
C146       C1041   1.406   1_455  A
C147        C148   1.397       .  A
C147       Br154   1.922       .  S
C148       C1045   1.405   1_455  A
C148        H153   1.083       .  S
C149        C150   1.412       .  A
C149       C1044   1.405       .  A
C150       Br151   1.921       .  S
C155        C156   1.405       .  A
C155        C160   1.397       .  A
C155        H162   1.083       .  S
C156       C1053   1.422   1_455  A
C157        C158   1.405       .  A
C157       C1052   1.422       .  A
C157       Br164   1.923       .  S
C158        C159   1.404       .  A
C158        H163   1.084       .  S
C159       C1056   1.409       .  A
C160       C1055   1.409   1_455  A
C160       Br161   1.905       .  S
C165        C166   1.403       .  A
C165        C170   1.393       .  A
C165        H172   1.084       .  S
C166        C167   1.410       .  A
C167        C168   1.399       .  A
C167       Br174   1.920       .  S
C168        C169   1.405       .  A
C168        H173   1.083       .  S
C169        C170   1.411       .  A
C170       Br171   1.924       .  S
C175        C176   1.410       .  A
C175        C180   1.396       .  A
C175        H182   1.083       .  S
C176        C177   1.421       .  A
C177        C178   1.396       .  A
C177       Br184   1.923       .  S
C178        C179   1.396       .  A
C178        H183   1.084       .  S
C179        C180   1.402       .  A
C180       Br181   1.918       .  S
C185        C186   1.404       .  A
C185        C190   1.403       .  A
C185        H192   1.084       .  S
C186        C187   1.405       .  A
C187        C188   1.392       .  A
C187       Br194   1.912       .  S
C188        C189   1.405       .  A
C188        H193   1.083       .  S
C189        C190   1.417       .  A
C190       Br191   1.921       .  S
C195        C196   1.402       .  A
C195        C200   1.400       .  A
C195        H202   1.084       .  S
C196        C197   1.405       .  A
C197        C198   1.394       .  A
C197       Br204   1.918       .  S
C198        C199   1.407       .  A
C198        H203   1.083       .  S
C199        C200   1.415       .  A
C200       Br201   1.921       .  S
C205        C206   1.399       .  A
C205        C210   1.401       .  A
C205        H212   1.084       .  S
C206        C207   1.396       .  A
C207        C208   1.393       .  A
C207       Br214   1.921       .  S
C208        C209   1.408       .  A
C208        H213   1.066       .  S
C209        C210   1.425       .  A
C210       Br211   1.925       .  S
C215        C216   1.401       .  A
C215        C220   1.393       .  A
C215        H222   1.084       .  S
C216        C217   1.406       .  A
C217        C218   1.400       .  A
C217       Br224   1.906       .  S
C218        C219   1.405       .  A
C218        H223   1.084       .  S
C219        C220   1.413       .  A
C220       Br221   1.919       .  S
C225        C226   1.403       .  A
C225        C230   1.401       .  A
C225        C323   1.479       .  S
C226        C227   1.411       .  A
C226        H231   1.081       .  S
C227        C228   1.404       .  A
C227        C433   1.504       .  S
C228        C229   1.403       .  A
C228        H232   1.080       .  S
C229        C230   1.399       .  A
C229        C440   1.479       .  S
C230        H233   1.084       .  S
C234        C235   1.402       .  A
C234        C239   1.401       .  A
C234        C410   1.478       .  S
C235        C236   1.402       .  A
C235        H240   1.084       .  S
C236        C237   1.399       .  A
C236        C420   1.472       .  S
C237        C238   1.399       .  A
C237        H241   1.084       .  S
C238        C239   1.402       .  A
C238        C325   1.474       .  S
C239        H242   1.084       .  S
Fe243       O259   2.060       .  S
Fe243       O249   2.051       .  S
Fe244       O255   2.058   1_554  S
Fe244       O260   2.057   1_554  S
Fe244       O254   1.978       .  S
Fe245       O250   2.064   1_554  S
Fe245       O246   2.069   1_554  S
Fe245       O254   1.982       .  S
O246        C253   1.269       .  A
O247        C261   1.265       .  A
O248        C253   1.270       .  A
O249        C252   1.266       .  A
O250        C262   1.268       .  A
O251        C264   1.266       .  A
C252        C423   1.481       .  S
C252        O257   1.267       .  A
C253        C413   1.485       .  S
O255        C258   1.268       .  A
O256        C258   1.265       .  A
C258        C400   1.488       .  S
O259        C264   1.266       .  A
O260        C262   1.266       .  A
C261        C430   1.462       .  S
C261        O263   1.269       .  A
C262        C443   1.478       .  S
C264        C390   1.472       .  S
C265        C266   1.395       .  A
C265        C270   1.400       .  A
C265        C403   1.465       .  S
C266        C267   1.397       .  A
C266        H271   1.084       .  S
C267        C268   1.403       .  A
C267        C393   1.476       .  S
C268       C1165   1.401       .  A
C268       H1168   1.084       .  S
C269       C1164   1.401       .  A
C269       C1166   1.403       .  A
C269        C327   1.479       .  S
C270       C1165   1.403       .  A
C270       H1169   1.084       .  S
H272       C1164   1.084       .  S
H273       C1166   1.084       .  S
Fe274       O290   2.076       .  S
Fe274       O280   2.055       .  S
Fe275       O286   2.085       .  S
Fe275       O291   2.058       .  S
Fe275       O285   1.975       .  S
Fe276       O281   2.074   1_554  S
Fe276       O277   2.051   1_554  S
Fe276       O285   1.977   1_554  S
O277        C284   1.264       .  A
O278        C292   1.274       .  A
O279        C284   1.270       .  A
O280        C283   1.265       .  A
O281        C293   1.270       .  A
O282        C295   1.269       .  A
C283        C330   1.484       .  S
C283        O288   1.274       .  A
C284        C343   1.473       .  S
O286        C289   1.271       .  A
O287        C289   1.267       .  A
C289        C353   1.479       .  S
O290        C295   1.269       .  A
O291        C293   1.268       .  A
C292        C380   1.496       .  S
C292        O294   1.266       .  A
C293        C370   1.482       .  S
C295        C363   1.495       .  S
C296        C297   1.405       .  A
C296        C301   1.398       .  A
C296        C326   1.482       .  S
C297        C298   1.407       .  A
C297        H302   1.083       .  S
C298        C299   1.408       .  A
C298        C383   1.492       .  S
C299        C300   1.408       .  A
C299        H303   1.083       .  S
C300        C301   1.402       .  A
C300        C373   1.487       .  S
C301        H304   1.084       .  S
C305        C306   1.402       .  A
C305        C758   1.406       .  A
C305        C350   1.486       .  S
C306        C307   1.402       .  A
C306        H311   1.083       .  S
C307        C756   1.403       .  A
C307        C360   1.484       .  S
C308        C755   1.403       .  A
C308        C309   1.406       .  A
C308        H312   1.084       .  S
C309        C310   1.404       .  A
C309        C324   1.486       .  S
C310        C753   1.406       .  A
C310        H313   1.084       .  S
C314        C315   1.406       .  A
C314       C1215   1.405   1_455  A
C314        C340   1.488       .  S
C315        C316   1.408       .  A
C315        H320   1.082       .  S
C316       C1213   1.406   1_455  A
C316        C333   1.501       .  S
C317       C1212   1.406       .  A
C317        C318   1.404       .  A
C317        H321   1.081       .  S
C318        C319   1.401       .  A
C318        C328   1.488       .  S
C319       C1210   1.405       .  A
C319        H322   1.083       .  S
C323        C324   1.413   1_545  A
C323        C328   1.416       .  A
C324        C773   1.409       .  A
C325        C772   1.409       .  A
C325        C326   1.410       .  A
C326        C775   1.410       .  A
C327        C774   1.410   1_545  A
C327        C328   1.412       .  A
C329        C330   1.397       .  A
C329       C1230   1.395       .  A
C329       H1232   1.084   1_455  S
C330        C331   1.414       .  A
C331        C332   1.403       .  A
C331       Br338   1.920       .  S
C332        C333   1.409       .  A
C332        H337   1.083       .  S
C333       C1230   1.416       .  A
C334       C1225   1.395       .  A
C334       C1229   1.416       .  A
C334       Br335   1.902       .  S
H336       C1225   1.084       .  S
C339        C340   1.409       .  A
C339        C344   1.403       .  A
C339        H346   1.082       .  S
C340        C341   1.415       .  A
C341        C342   1.398       .  A
C341       Br348   1.923   1_455  S
C342        C343   1.402       .  A
C342        H347   1.084       .  S
C343        C344   1.406       .  A
C344       Br345   1.919       .  S
C349        C350   1.407       .  A
C349        C354   1.405       .  A
C349        H804   1.084       .  S
C350        C351   1.414       .  A
C351        C352   1.395       .  A
C351       Br358   1.923       .  S
C352        C353   1.402       .  A
C352        H357   1.084       .  S
C353        C354   1.411       .  A
C354       Br355   1.919       .  S
H356        C797   1.084       .  S
C359        C360   1.403       .  A
C359        C364   1.403       .  A
C359        H366   1.084       .  S
C360        C361   1.408       .  A
C361        C362   1.396       .  A
C361       Br368   1.916       .  S
C362        C363   1.409       .  A
C362        H367   1.083       .  S
C363        C364   1.421       .  A
C364       Br365   1.922       .  S
C369       C1266   1.406       .  A
C369        C374   1.401       .  A
C369        H376   1.083       .  S
C370       C1265   1.406   1_455  A
C370        C371   1.411       .  A
C371        C372   1.397       .  A
C371       Br378   1.922       .  S
C372       C1269   1.405   1_455  A
C372        H377   1.083       .  S
C373       C1268   1.405       .  A
C373        C374   1.412       .  A
C374       Br375   1.921       .  S
C379        C380   1.405       .  A
C379        C384   1.397       .  A
C379        H386   1.083       .  S
C380       C1277   1.421   1_455  A
C381       C1276   1.421       .  A
C381        C382   1.405       .  A
C381       Br388   1.923       .  S
C382        C383   1.404       .  A
C382        H387   1.084       .  S
C383       C1280   1.409       .  A
C384       C1279   1.409   1_455  A
C384       Br385   1.905       .  S
C389        C390   1.403       .  A
C389        C394   1.393       .  A
C389        H396   1.084       .  S
C390        C391   1.410       .  A
C391        C392   1.399       .  A
C391       Br398   1.920       .  S
C392        C393   1.405       .  A
C392        H397   1.083       .  S
C393        C394   1.411       .  A
C394       Br395   1.924       .  S
C399        C400   1.410       .  A
C399        C404   1.396       .  A
C399        H406   1.083       .  S
C400        C401   1.421       .  A
C401        C402   1.396       .  A
C401       Br408   1.923       .  S
C402        C403   1.396       .  A
C402        H407   1.084       .  S
C403        C404   1.402       .  A
C404       Br405   1.918       .  S
C409        C410   1.404       .  A
C409        C414   1.403       .  A
C409        H416   1.084       .  S
C410        C411   1.405       .  A
C411        C412   1.392       .  A
C411       Br418   1.912       .  S
C412        C413   1.405       .  A
C412        H417   1.083       .  S
C413        C414   1.417       .  A
C414       Br415   1.921       .  S
C419        C420   1.402       .  A
C419        C424   1.400       .  A
C419        H426   1.084       .  S
C420        C421   1.405       .  A
C421        C422   1.393       .  A
C421       Br428   1.918       .  S
C422        C423   1.407       .  A
C422        H427   1.083       .  S
C423        C424   1.415       .  A
C424       Br425   1.921       .  S
C429        C430   1.399       .  A
C429        C434   1.401       .  A
C429        H436   1.084       .  S
C430        C431   1.396       .  A
C431        C432   1.393       .  A
C431       Br438   1.921       .  S
C432        C433   1.409       .  A
C432        H437   1.066       .  S
C433        C434   1.425       .  A
C434       Br435   1.925       .  S
C439        C440   1.401       .  A
C439        C444   1.393       .  A
C439        H446   1.084       .  S
C440        C441   1.406       .  A
C441        C442   1.400       .  A
C441       Br448   1.906       .  S
C442        C443   1.405       .  A
C442        H447   1.084       .  S
C443        C444   1.413       .  A
C444       Br445   1.919       .  S
C449        C450   1.403       .  A
C449        C454   1.401       .  A
C449        C547   1.480       .  S
C450        C451   1.411       .  A
C450        H455   1.081       .  S
C451        C452   1.404       .  A
C451        C657   1.504       .  S
C452        C453   1.403       .  A
C452        H456   1.080       .  S
C453        C454   1.399       .  A
C453        C664   1.479       .  S
C454        H457   1.084       .  S
C458        C459   1.402       .  A
C458        C463   1.401       .  A
C458        C634   1.478       .  S
C459        C460   1.402       .  A
C459        H464   1.084       .  S
C460        C461   1.399       .  A
C460        C644   1.472       .  S
C461        C462   1.399       .  A
C461        H465   1.084       .  S
C462        C463   1.402       .  A
C462        C549   1.474       .  S
C463        H466   1.084       .  S
Fe467       O483   2.060       .  S
Fe467       O473   2.051       .  S
Fe467       O704   2.058   1_554  S
Fe467       O696   2.055   1_554  S
Fe467       O702   1.975       .  S
Fe468       O695   2.051       .  S
Fe468       O699   2.051       .  S
Fe468       O479   2.058       .  S
Fe468       O484   2.057       .  S
Fe468       O478   1.978       .  S
Fe469       O711   2.065       .  S
Fe469       O474   2.064       .  S
Fe469       O705   2.065       .  S
Fe469       O470   2.070       .  S
Fe469       O478   1.982       .  S
O470        C477   1.269       .  A
O471       Fe692   2.051       .  S
O471        C485   1.265       .  A
O472       Fe691   2.055       .  S
O472        C477   1.270       .  A
O473        C476   1.266       .  A
O474        C486   1.268       .  A
O475       Fe692   2.051       .  S
O475        C488   1.266       .  A
C476        C647   1.481       .  S
C476        O481   1.267       .  A
C477        C637   1.485       .  S
O478       Fe691   1.975       .  S
O479        C482   1.268       .  A
O480       Fe691   2.058       .  S
O480        C482   1.265       .  A
O481       Fe693   2.065       .  S
C482        C624   1.488       .  S
O483        C488   1.266       .  A
O484        C486   1.266       .  A
C485        C654   1.462       .  S
C485        O487   1.269       .  A
C486        C667   1.478       .  S
O487       Fe693   2.065       .  S
C488        C614   1.472       .  S
C489        C490   1.395       .  A
C489        C494   1.400       .  A
C489        C627   1.465       .  S
C490        C491   1.397       .  A
C490        H495   1.084       .  S
C491        C492   1.403       .  A
C491        C617   1.476       .  S
C492       C1389   1.401       .  A
C492       H1392   1.084       .  S
C493       C1388   1.401       .  A
C493       C1390   1.403       .  A
C493        C551   1.479       .  S
C494       C1389   1.403       .  A
C494       H1393   1.084       .  S
H496       C1388   1.084       .  S
H497       C1390   1.084       .  S
Fe498       O514   2.076   1_556  S
Fe498       O504   2.055   1_556  S
Fe498       O735   2.051       .  S
Fe498       O727   2.081       .  S
Fe498       O733   1.978       .  S
Fe499       O726   2.083       .  S
Fe499       O730   2.059       .  S
Fe499       O510   2.085       .  S
Fe499       O515   2.058       .  S
Fe499       O509   1.975       .  S
Fe500       O742   2.060       .  S
Fe500       O505   2.074       .  S
Fe500       O736   2.079       .  S
Fe500       O501   2.051       .  S
Fe500       O509   1.977       .  S
O501        C508   1.264       .  A
O502       Fe723   2.083   1_554  S
O502        C516   1.274       .  A
O503       Fe722   2.081       .  S
O503        C508   1.270       .  A
O504        C507   1.265       .  A
O505        C517   1.270       .  A
O506       Fe723   2.059   1_554  S
O506        C519   1.269       .  A
C507        C554   1.483       .  S
C507        O512   1.274       .  A
C508        C567   1.473       .  S
O509       Fe722   1.978       .  S
O510        C513   1.271       .  A
O511       Fe722   2.051       .  S
O511        C513   1.267       .  A
O512       Fe724   2.079       .  S
C513        C577   1.479       .  S
O514        C519   1.269       .  A
O515        C517   1.268       .  A
C516        C604   1.497       .  S
C516        O518   1.266       .  A
C517        C594   1.482       .  S
O518       Fe724   2.060       .  S
C519        C587   1.495       .  S
C520        C521   1.405       .  A
C520        C525   1.398       .  A
C520        C550   1.482       .  S
C521        C522   1.407       .  A
C521        H526   1.083       .  S
C522        C523   1.408       .  A
C522        C607   1.492       .  S
C523        C524   1.408       .  A
C523        H527   1.083       .  S
C524        C525   1.402       .  A
C524        C597   1.487       .  S
C525        H528   1.084       .  S
C529        C530   1.402       .  A
C529        C574   1.486       .  S
C530        C531   1.402       .  A
C530        H535   1.083       .  S
C531        C584   1.484       .  S
C532        C533   1.406       .  A
C532        H536   1.084       .  S
C533        C534   1.404       .  A
C533        C548   1.486       .  S
C534        H537   1.084       .  S
C538        C539   1.406       .  A
C538       C1439   1.405   1_455  A
C538        C564   1.488       .  S
C539        C540   1.408       .  A
C539        H544   1.082       .  S
C540       C1437   1.406   1_455  A
C540        C557   1.502       .  S
C541       C1436   1.406       .  A
C541        C542   1.404       .  A
C541        H545   1.080       .  S
C542        C543   1.401       .  A
C542        C552   1.488       .  S
C543       C1434   1.405       .  A
C543        H546   1.083       .  S
C547        C548   1.413       .  A
C547        C552   1.416       .  A
C549        C550   1.410       .  A
C551        C552   1.412       .  A
C553        C554   1.397       .  A
C553       C1454   1.395       .  A
C553       H1456   1.084   1_455  S
C554        C555   1.414       .  A
C555        C556   1.403       .  A
C555       Br562   1.920       .  S
C556        C557   1.409       .  A
C556        H561   1.083       .  S
C557       C1454   1.417       .  A
C558       C1449   1.395       .  A
C558       C1453   1.417       .  A
C558       Br559   1.903       .  S
H560       C1449   1.084       .  S
C563        C564   1.409       .  A
C563        C568   1.403       .  A
C563        H570   1.082       .  S
C564        C565   1.415       .  A
C565        C566   1.398       .  A
C565       Br572   1.923   1_455  S
C566        C567   1.402       .  A
C566        H571   1.084       .  S
C567        C568   1.406       .  A
C568       Br569   1.919       .  S
C573        C574   1.407       .  A
C573        C578   1.405       .  A
C574        C575   1.414       .  A
C575        C576   1.395       .  A
C575       Br582   1.923       .  S
C576        C577   1.402       .  A
C576        H581   1.084       .  S
C577        C578   1.411       .  A
C578       Br579   1.919       .  S
C583        C584   1.403       .  A
C583        C588   1.403       .  A
C583        H590   1.084       .  S
C584        C585   1.408       .  A
C585        C586   1.396       .  A
C585       Br592   1.916   1_565  S
C586        C587   1.409       .  A
C586        H591   1.083       .  S
C587        C588   1.421       .  A
C588       Br589   1.922       .  S
C593       C1490   1.406       .  A
C593        C598   1.401       .  A
C593        H600   1.083       .  S
C594       C1489   1.406   1_455  A
C594        C595   1.411       .  A
C595        C596   1.397       .  A
C595       Br602   1.922       .  S
C596       C1493   1.405   1_455  A
C596        H601   1.083       .  S
C597       C1492   1.405       .  A
C597        C598   1.412       .  A
C598       Br599   1.921       .  S
C603        C604   1.405       .  A
C603        C608   1.397       .  A
C603        H610   1.083       .  S
C604       C1501   1.422   1_455  A
C605       C1500   1.422       .  A
C605        C606   1.405       .  A
C605       Br612   1.923       .  S
C606        C607   1.404       .  A
C606        H611   1.084       .  S
C607       C1504   1.409       .  A
C608       C1503   1.409   1_455  A
C608       Br609   1.905       .  S
C613        C614   1.403       .  A
C613        C618   1.393       .  A
C613        H620   1.084       .  S
C614        C615   1.410       .  A
C615        C616   1.399       .  A
C615       Br622   1.920       .  S
C616        C617   1.405       .  A
C616        H621   1.083       .  S
C617        C618   1.411       .  A
C618       Br619   1.924       .  S
C623        C624   1.410       .  A
C623        C628   1.396       .  A
C623        H630   1.083       .  S
C624        C625   1.421       .  A
C625        C626   1.396       .  A
C625       Br632   1.923       .  S
C626        C627   1.396       .  A
C626        H631   1.084       .  S
C627        C628   1.402       .  A
C628       Br629   1.918       .  S
C633        C634   1.404       .  A
C633        C638   1.403       .  A
C633        H640   1.084       .  S
C634        C635   1.405       .  A
C635        C636   1.392       .  A
C635       Br642   1.912       .  S
C636        C637   1.405       .  A
C636        H641   1.083       .  S
C637        C638   1.417       .  A
C638       Br639   1.921       .  S
C643        C644   1.402       .  A
C643        C648   1.400       .  A
C643        H650   1.084       .  S
C644        C645   1.405       .  A
C645        C646   1.394       .  A
C645       Br652   1.918       .  S
C646        C647   1.407       .  A
C646        H651   1.083       .  S
C647        C648   1.415       .  A
C648       Br649   1.921       .  S
C653        C654   1.399       .  A
C653        C658   1.401       .  A
C653        H660   1.084       .  S
C654        C655   1.396       .  A
C655        C656   1.393       .  A
C655       Br662   1.921       .  S
C656        C657   1.408       .  A
C656        H661   1.066       .  S
C657        C658   1.425       .  A
C658       Br659   1.925       .  S
C663        C664   1.401       .  A
C663        C668   1.393       .  A
C663        H670   1.084       .  S
C664        C665   1.406       .  A
C665        C666   1.400       .  A
C665       Br672   1.906       .  S
C666        C667   1.405       .  A
C666        H671   1.084       .  S
C667        C668   1.413       .  A
C668       Br669   1.919       .  S
C673        C674   1.403       .  A
C673        C678   1.401       .  A
C673        C771   1.479       .  S
C674        C675   1.411       .  A
C674        H679   1.081       .  S
C675        C676   1.404       .  A
C675        C881   1.504       .  S
C676        C677   1.403       .  A
C676        H680   1.080       .  S
C677        C678   1.399       .  A
C677        C888   1.479       .  S
C678        H681   1.084       .  S
C682        C683   1.402       .  A
C682        C687   1.401       .  A
C682        C858   1.478       .  S
C683        C684   1.402       .  A
C683        H688   1.084       .  S
C684        C685   1.399       .  A
C684        C868   1.472       .  S
C685        C686   1.399       .  A
C685        H689   1.084       .  S
C686        C687   1.402       .  A
C686        C773   1.474       .  S
C687        H690   1.084       .  S
Fe691       O707   2.060       .  S
Fe691       O697   2.051       .  S
Fe692       O703   2.058   1_554  S
Fe692       O708   2.057   1_554  S
Fe692       O702   1.978       .  S
Fe693       O698   2.064   1_554  S
Fe693       O694   2.069   1_554  S
Fe693       O702   1.982       .  S
O694        C701   1.269       .  A
O695        C709   1.265       .  A
O696        C701   1.270       .  A
O697        C700   1.266       .  A
O698        C710   1.268       .  A
O699        C712   1.266       .  A
C700        C871   1.481       .  S
C700        O705   1.267       .  A
C701        C861   1.485       .  S
O703        C706   1.268       .  A
O704        C706   1.265       .  A
C706        C848   1.488       .  S
O707        C712   1.266       .  A
O708        C710   1.266       .  A
C709        C878   1.462       .  S
C709        O711   1.269       .  A
C710        C891   1.478       .  S
C712        C838   1.472       .  S
C713        C714   1.395       .  A
C713        C718   1.400       .  A
C713        C851   1.465       .  S
C714        C715   1.397       .  A
C714        H719   1.084       .  S
C715        C716   1.403       .  A
C715        C841   1.476       .  S
C716       C1613   1.401       .  A
C716       H1616   1.084       .  S
C717       C1612   1.401       .  A
C717       C1614   1.403       .  A
C717        C775   1.479       .  S
C718       C1613   1.403       .  A
C718       H1617   1.084       .  S
H720       C1612   1.084       .  S
H721       C1614   1.084       .  S
Fe722       O738   2.076       .  S
Fe722       O728   2.055       .  S
Fe723       O734   2.085       .  S
Fe723       O739   2.058       .  S
Fe723       O733   1.975       .  S
Fe724       O729   2.074   1_554  S
Fe724       O725   2.051   1_554  S
Fe724       O733   1.977   1_554  S
O725        C732   1.264       .  A
O726        C740   1.274       .  A
O727        C732   1.270       .  A
O728        C731   1.265       .  A
O729        C741   1.270       .  A
O730        C743   1.269       .  A
C731        C778   1.484       .  S
C731        O736   1.274       .  A
C732        C791   1.473       .  S
O734        C737   1.271       .  A
O735        C737   1.267       .  A
C737        C801   1.479       .  S
O738        C743   1.269       .  A
O739        C741   1.268       .  A
C740        C828   1.496       .  S
C740        O742   1.266       .  A
C741        C818   1.482       .  S
C743        C811   1.495       .  S
C744        C745   1.405       .  A
C744        C749   1.398       .  A
C744        C774   1.482       .  S
C745        C746   1.407       .  A
C745        H750   1.083       .  S
C746        C747   1.408       .  A
C746        C831   1.492       .  S
C747        C748   1.408       .  A
C747        H751   1.083       .  S
C748        C749   1.402       .  A
C748        C821   1.487       .  S
C749        H752   1.084       .  S
C753        C754   1.402       .  A
C753        C798   1.486       .  S
C754        C755   1.402       .  A
C754        H759   1.083       .  S
C755        C808   1.484       .  S
C756        C757   1.406       .  A
C756        H760   1.084       .  S
C757        C758   1.404       .  A
C757        C772   1.486       .  S
C758        H761   1.084       .  S
C762        C763   1.406       .  A
C762       C1663   1.405   1_455  A
C762        C788   1.488       .  S
C763        C764   1.408       .  A
C763        H768   1.082       .  S
C764       C1661   1.406   1_455  A
C764        C781   1.501       .  S
C765       C1660   1.406       .  A
C765        C766   1.404       .  A
C765        H769   1.081       .  S
C766        C767   1.401       .  A
C766        C776   1.488       .  S
C767       C1658   1.405       .  A
C767        H770   1.083       .  S
C771        C772   1.413       .  A
C771        C776   1.416       .  A
C773        C774   1.410       .  A
C775        C776   1.412       .  A
C777        C778   1.397       .  A
C777       C1678   1.395       .  A
C777       H1680   1.084   1_455  S
C778        C779   1.414       .  A
C779        C780   1.403       .  A
C779       Br786   1.920       .  S
C780        C781   1.409       .  A
C780        H785   1.083       .  S
C781       C1678   1.416       .  A
C782       C1673   1.395       .  A
C782       C1677   1.416       .  A
C782       Br783   1.902       .  S
H784       C1673   1.084       .  S
C787        C788   1.409       .  A
C787        C792   1.403       .  A
C787        H794   1.082       .  S
C788        C789   1.415       .  A
C789        C790   1.398       .  A
C789       Br796   1.923   1_455  S
C790        C791   1.402       .  A
C790        H795   1.084       .  S
C791        C792   1.406       .  A
C792       Br793   1.919       .  S
C797        C798   1.407       .  A
C797        C802   1.405       .  A
C798        C799   1.414       .  A
C799        C800   1.395       .  A
C799       Br806   1.923       .  S
C800        C801   1.402       .  A
C800        H805   1.084       .  S
C801        C802   1.411       .  A
C802       Br803   1.919       .  S
C807        C808   1.403       .  A
C807        C812   1.403       .  A
C807        H814   1.084       .  S
C808        C809   1.408       .  A
C809        C810   1.396       .  A
C809       Br816   1.916   1_565  S
C810        C811   1.409       .  A
C810        H815   1.083       .  S
C811        C812   1.421       .  A
C812       Br813   1.922       .  S
C817       C1714   1.406       .  A
C817        C822   1.401       .  A
C817        H824   1.083       .  S
C818       C1713   1.406   1_455  A
C818        C819   1.411       .  A
C819        C820   1.397       .  A
C819       Br826   1.922       .  S
C820       C1717   1.405   1_455  A
C820        H825   1.083       .  S
C821       C1716   1.405       .  A
C821        C822   1.412       .  A
C822       Br823   1.921       .  S
C827        C828   1.405       .  A
C827        C832   1.397       .  A
C827        H834   1.083       .  S
C828       C1725   1.421   1_455  A
C829       C1724   1.421       .  A
C829        C830   1.405       .  A
C829       Br836   1.923       .  S
C830        C831   1.404       .  A
C830        H835   1.084       .  S
C831       C1728   1.409       .  A
C832       C1727   1.409   1_455  A
C832       Br833   1.905       .  S
C837        C838   1.403       .  A
C837        C842   1.393       .  A
C837        H844   1.084       .  S
C838        C839   1.410       .  A
C839        C840   1.399       .  A
C839       Br846   1.920       .  S
C840        C841   1.405       .  A
C840        H845   1.083       .  S
C841        C842   1.411       .  A
C842       Br843   1.924       .  S
C847        C848   1.410       .  A
C847        C852   1.396       .  A
C847        H854   1.083       .  S
C848        C849   1.421       .  A
C849        C850   1.396       .  A
C849       Br856   1.923       .  S
C850        C851   1.396       .  A
C850        H855   1.084       .  S
C851        C852   1.402       .  A
C852       Br853   1.918       .  S
C857        C858   1.404       .  A
C857        C862   1.403       .  A
C857        H864   1.084       .  S
C858        C859   1.405       .  A
C859        C860   1.392       .  A
C859       Br866   1.912       .  S
C860        C861   1.405       .  A
C860        H865   1.083       .  S
C861        C862   1.417       .  A
C862       Br863   1.921       .  S
C867        C868   1.402       .  A
C867        C872   1.400       .  A
C867        H874   1.084       .  S
C868        C869   1.405       .  A
C869        C870   1.393       .  A
C869       Br876   1.918       .  S
C870        C871   1.407       .  A
C870        H875   1.083       .  S
C871        C872   1.415       .  A
C872       Br873   1.921       .  S
C877        C878   1.399       .  A
C877        C882   1.401       .  A
C877        H884   1.084       .  S
C878        C879   1.396       .  A
C879        C880   1.393       .  A
C879       Br886   1.921       .  S
C880        C881   1.409       .  A
C880        H885   1.066       .  S
C881        C882   1.425       .  A
C882       Br883   1.925       .  S
C887        C888   1.401       .  A
C887        C892   1.393       .  A
C887        H894   1.084       .  S
C888        C889   1.406       .  A
C889        C890   1.400       .  A
C889       Br896   1.906       .  S
C890        C891   1.405       .  A
C890        H895   1.084       .  S
C891        C892   1.413       .  A
C892       Br893   1.919       .  S
C897        C898   1.403       .  A
C897        C902   1.401       .  A
C897        C995   1.480       .  S
C898        C899   1.411       .  A
C898        H903   1.081       .  S
C899        C900   1.404       .  A
C899       C1105   1.504       .  S
C900        C901   1.403       .  A
C900        H904   1.080       .  S
C901        C902   1.399       .  A
C901       C1112   1.479       .  S
C902        H905   1.084       .  S
C906        C907   1.402       .  A
C906        C911   1.401       .  A
C906       C1082   1.478       .  S
C907        C908   1.402       .  A
C907        H912   1.084       .  S
C908        C909   1.399       .  A
C908       C1092   1.472       .  S
C909        C910   1.399       .  A
C909        H913   1.084       .  S
C910        C911   1.402       .  A
C910        C997   1.474       .  S
C911        H914   1.084       .  S
Fe915       O931   2.060       .  S
Fe915       O921   2.051       .  S
Fe915      O1152   2.058   1_554  S
Fe915      O1144   2.055   1_554  S
Fe915      O1150   1.975       .  S
Fe916      O1143   2.051       .  S
Fe916      O1147   2.051       .  S
Fe916       O927   2.058       .  S
Fe916       O932   2.057       .  S
Fe916       O926   1.978       .  S
Fe917      O1159   2.065       .  S
Fe917       O922   2.064       .  S
Fe917      O1153   2.065       .  S
Fe917       O918   2.070       .  S
Fe917       O926   1.982       .  S
O918        C925   1.269       .  A
O919      Fe1140   2.051       .  S
O919        C933   1.265       .  A
O920      Fe1139   2.055       .  S
O920        C925   1.270       .  A
O921        C924   1.266       .  A
O922        C934   1.268       .  A
O923      Fe1140   2.051       .  S
O923        C936   1.266       .  A
C924       C1095   1.481       .  S
C924        O929   1.267       .  A
C925       C1085   1.485       .  S
O926      Fe1139   1.975       .  S
O927        C930   1.268       .  A
O928      Fe1139   2.058       .  S
O928        C930   1.265       .  A
O929      Fe1141   2.065       .  S
C930       C1072   1.488       .  S
O931        C936   1.266       .  A
O932        C934   1.266       .  A
C933       C1102   1.462       .  S
C933        O935   1.269       .  A
C934       C1115   1.478       .  S
O935      Fe1141   2.065       .  S
C936       C1062   1.472       .  S
C937        C938   1.395       .  A
C937        C942   1.400       .  A
C937       C1075   1.465       .  S
C938        C939   1.397       .  A
C938        H943   1.084       .  S
C939        C940   1.403       .  A
C939       C1065   1.476       .  S
C941        C999   1.479   1_455  S
Fe946       O962   2.076   1_556  S
Fe946       O952   2.055   1_556  S
Fe946      O1183   2.051       .  S
Fe946      O1175   2.081       .  S
Fe946      O1181   1.978       .  S
Fe947      O1174   2.083       .  S
Fe947      O1178   2.059       .  S
Fe947       O958   2.085       .  S
Fe947       O963   2.058       .  S
Fe947       O957   1.975       .  S
Fe948      O1190   2.060       .  S
Fe948       O953   2.074       .  S
Fe948      O1184   2.079       .  S
Fe948       O949   2.051       .  S
Fe948       O957   1.977       .  S
O949        C956   1.264       .  A
O950      Fe1171   2.083   1_554  S
O950        C964   1.274       .  A
O951      Fe1170   2.081       .  S
O951        C956   1.270       .  A
O952        C955   1.265       .  A
O953        C965   1.270       .  A
O954      Fe1171   2.059   1_554  S
O954        C967   1.269       .  A
C955       C1002   1.483       .  S
C955        O960   1.274       .  A
C956       C1015   1.473       .  S
O957      Fe1170   1.978       .  S
O958        C961   1.271       .  A
O959      Fe1170   2.051       .  S
O959        C961   1.267       .  A
O960      Fe1172   2.079       .  S
C961       C1025   1.479       .  S
O962        C967   1.269       .  A
O963        C965   1.268       .  A
C964       C1052   1.497       .  S
C964        O966   1.266       .  A
C965       C1042   1.482       .  S
O966      Fe1172   2.060       .  S
C967       C1035   1.495       .  S
C968        C969   1.405       .  A
C968        C973   1.398       .  A
C968        C998   1.482       .  S
C969        C970   1.407       .  A
C969        H974   1.083       .  S
C970        C971   1.408       .  A
C970       C1055   1.492       .  S
C971        C972   1.408       .  A
C971        H975   1.083   1_655  S
C972        C973   1.402       .  A
C972       C1045   1.487       .  S
C973        H976   1.084       .  S
C977        C978   1.402       .  A
C977       C1430   1.406       .  A
C977       C1022   1.486       .  S
C978        C979   1.402       .  A
C978        H983   1.083       .  S
C979       C1428   1.403       .  A
C979       C1032   1.484       .  S
C980       C1427   1.403       .  A
C980        C981   1.406       .  A
C980        H984   1.084       .  S
C981        C982   1.404       .  A
C981        C996   1.486       .  S
C982       C1425   1.406       .  A
C982        H985   1.084       .  S
C986        C987   1.406       .  A
C986       C1012   1.488       .  S
C987        C988   1.408       .  A
C987        H992   1.082       .  S
C988       C1005   1.502       .  S
C989        C990   1.404       .  A
C989        H993   1.080       .  S
C990        C991   1.401       .  A
C990       C1000   1.488       .  S
C991        H994   1.083       .  S
C995        C996   1.413   1_545  A
C995       C1000   1.416       .  A
C996       C1445   1.409       .  A
C997       C1444   1.409       .  A
C997        C998   1.410       .  A
C998       C1447   1.410       .  A
C999       C1446   1.410   1_545  A
C999       C1000   1.412       .  A
C1001      C1002   1.397       .  A
C1002      C1003   1.414       .  A
C1003      C1004   1.403       .  A
C1003     Br1010   1.920       .  S
C1004      C1005   1.409       .  A
C1004      H1009   1.083       .  S
C1006     Br1007   1.903   1_455  S
C1011      C1012   1.409       .  A
C1011      C1016   1.403       .  A
C1011      H1018   1.082       .  S
C1012      C1013   1.415       .  A
C1013      C1014   1.398       .  A
C1013     Br1020   1.923       .  S
C1014      C1015   1.402       .  A
C1014      H1019   1.084       .  S
C1015      C1016   1.406       .  A
C1016     Br1017   1.919       .  S
C1021      C1022   1.407       .  A
C1021      C1026   1.405       .  A
C1021      H1476   1.084       .  S
C1022      C1023   1.414       .  A
C1023      C1024   1.395       .  A
C1023     Br1030   1.923       .  S
C1024      C1025   1.402       .  A
C1024      H1029   1.084       .  S
C1025      C1026   1.411       .  A
C1026     Br1027   1.919       .  S
H1028      C1469   1.084       .  S
C1031      C1032   1.403       .  A
C1031      C1036   1.403       .  A
C1031      H1038   1.084       .  S
C1032      C1033   1.408       .  A
C1033      C1034   1.396       .  A
C1033     Br1040   1.916       .  S
C1034      C1035   1.409       .  A
C1034      H1039   1.083       .  S
C1035      C1036   1.421       .  A
C1036     Br1037   1.922       .  S
C1041      C1046   1.401       .  A
C1041      H1048   1.083       .  S
C1042      C1043   1.411       .  A
C1043      C1044   1.397       .  A
C1043     Br1050   1.922       .  S
C1044      H1049   1.083       .  S
C1045      C1046   1.412       .  A
C1046     Br1047   1.921       .  S
C1051      C1052   1.405       .  A
C1051      C1056   1.397       .  A
C1051      H1058   1.083       .  S
C1053      C1054   1.405       .  A
C1053     Br1060   1.923       .  S
C1054      C1055   1.404       .  A
C1054      H1059   1.084       .  S
C1056     Br1057   1.905       .  S
C1061      C1062   1.403       .  A
C1061      C1066   1.393       .  A
C1061      H1068   1.084       .  S
C1062      C1063   1.410       .  A
C1063      C1064   1.399       .  A
C1063     Br1070   1.920       .  S
C1064      C1065   1.405       .  A
C1064      H1069   1.083       .  S
C1065      C1066   1.411       .  A
C1066     Br1067   1.924       .  S
C1071      C1072   1.410       .  A
C1071      C1076   1.396       .  A
C1071      H1078   1.083       .  S
C1072      C1073   1.421       .  A
C1073      C1074   1.396       .  A
C1073     Br1080   1.923       .  S
C1074      C1075   1.396       .  A
C1074      H1079   1.084       .  S
C1075      C1076   1.402       .  A
C1076     Br1077   1.918       .  S
C1081      C1082   1.404       .  A
C1081      C1086   1.403       .  A
C1081      H1088   1.084       .  S
C1082      C1083   1.405       .  A
C1083      C1084   1.392       .  A
C1083     Br1090   1.912       .  S
C1084      C1085   1.405       .  A
C1084      H1089   1.083       .  S
C1085      C1086   1.417       .  A
C1086     Br1087   1.921       .  S
C1091      C1092   1.402       .  A
C1091      C1096   1.400       .  A
C1091      H1098   1.084       .  S
C1092      C1093   1.405       .  A
C1093      C1094   1.394       .  A
C1093     Br1100   1.918       .  S
C1094      C1095   1.407       .  A
C1094      H1099   1.083       .  S
C1095      C1096   1.415       .  A
C1096     Br1097   1.921       .  S
C1101      C1102   1.399       .  A
C1101      C1106   1.401       .  A
C1101      H1108   1.084       .  S
C1102      C1103   1.396       .  A
C1103      C1104   1.393       .  A
C1103     Br1110   1.921       .  S
C1104      C1105   1.408       .  A
C1104      H1109   1.066       .  S
C1105      C1106   1.425       .  A
C1106     Br1107   1.925       .  S
C1111      C1112   1.401       .  A
C1111      C1116   1.393       .  A
C1111      H1118   1.084       .  S
C1112      C1113   1.406       .  A
C1113      C1114   1.400       .  A
C1113     Br1120   1.906       .  S
C1114      C1115   1.405       .  A
C1114      H1119   1.084       .  S
C1115      C1116   1.413       .  A
C1116     Br1117   1.919       .  S
C1121      C1122   1.403       .  A
C1121      C1126   1.401       .  A
C1121      C1219   1.479       .  S
C1122      C1123   1.411       .  A
C1122      H1127   1.081       .  S
C1123      C1124   1.404       .  A
C1123      C1329   1.504       .  S
C1124      C1125   1.403       .  A
C1124      H1128   1.080       .  S
C1125      C1126   1.399       .  A
C1125      C1336   1.479       .  S
C1126      H1129   1.084       .  S
C1130      C1131   1.402       .  A
C1130      C1135   1.401       .  A
C1130      C1306   1.478       .  S
C1131      C1132   1.402       .  A
C1131      H1136   1.084       .  S
C1132      C1133   1.399       .  A
C1132      C1316   1.472       .  S
C1133      C1134   1.399       .  A
C1133      H1137   1.084       .  S
C1134      C1135   1.402       .  A
C1134      C1221   1.474       .  S
C1135      H1138   1.084       .  S
Fe1139     O1155   2.060       .  S
Fe1139     O1145   2.051       .  S
Fe1140     O1151   2.058   1_554  S
Fe1140     O1156   2.057   1_554  S
Fe1140     O1150   1.978       .  S
Fe1141     O1146   2.064   1_554  S
Fe1141     O1142   2.069   1_554  S
Fe1141     O1150   1.982       .  S
O1142      C1149   1.269       .  A
O1143      C1157   1.265       .  A
O1144      C1149   1.270       .  A
O1145      C1148   1.266       .  A
O1146      C1158   1.268       .  A
O1147      C1160   1.266       .  A
C1148      C1319   1.481       .  S
C1148      O1153   1.267       .  A
C1149      C1309   1.485       .  S
O1151      C1154   1.268       .  A
O1152      C1154   1.265       .  A
C1154      C1296   1.488       .  S
O1155      C1160   1.266       .  A
O1156      C1158   1.266       .  A
C1157      C1326   1.462       .  S
C1157      O1159   1.269       .  A
C1158      C1339   1.478       .  S
C1160      C1286   1.472       .  S
C1161      C1162   1.395       .  A
C1161      C1166   1.400       .  A
C1161      C1299   1.465       .  S
C1162      C1163   1.397       .  A
C1162      H1167   1.084       .  S
C1163      C1164   1.403       .  A
C1163      C1289   1.476       .  S
C1165      C1223   1.479   1_455  S
Fe1170     O1186   2.076       .  S
Fe1170     O1176   2.055       .  S
Fe1171     O1182   2.085       .  S
Fe1171     O1187   2.058       .  S
Fe1171     O1181   1.975       .  S
Fe1172     O1177   2.074   1_554  S
Fe1172     O1173   2.051   1_554  S
Fe1172     O1181   1.977   1_554  S
O1173      C1180   1.264       .  A
O1174      C1188   1.274       .  A
O1175      C1180   1.270       .  A
O1176      C1179   1.265       .  A
O1177      C1189   1.270       .  A
O1178      C1191   1.269       .  A
C1179      C1226   1.484       .  S
C1179      O1184   1.274       .  A
C1180      C1239   1.473       .  S
O1182      C1185   1.271       .  A
O1183      C1185   1.267       .  A
C1185      C1249   1.479       .  S
O1186      C1191   1.269       .  A
O1187      C1189   1.268       .  A
C1188      C1276   1.496       .  S
C1188      O1190   1.266       .  A
C1189      C1266   1.482       .  S
C1191      C1259   1.495       .  S
C1192      C1193   1.405       .  A
C1192      C1197   1.398       .  A
C1192      C1222   1.482       .  S
C1193      C1194   1.407       .  A
C1193      H1198   1.083       .  S
C1194      C1195   1.408       .  A
C1194      C1279   1.492       .  S
C1195      C1196   1.408       .  A
C1195      H1199   1.083   1_655  S
C1196      C1197   1.402       .  A
C1196      C1269   1.487       .  S
C1197      H1200   1.084       .  S
C1201      C1202   1.402       .  A
C1201      C1654   1.406       .  A
C1201      C1246   1.486       .  S
C1202      C1203   1.402       .  A
C1202      H1207   1.083       .  S
C1203      C1652   1.403       .  A
C1203      C1256   1.484       .  S
C1204      C1651   1.403       .  A
C1204      C1205   1.406       .  A
C1204      H1208   1.084       .  S
C1205      C1206   1.404       .  A
C1205      C1220   1.486       .  S
C1206      C1649   1.406       .  A
C1206      H1209   1.084       .  S
C1210      C1211   1.406       .  A
C1210      C1236   1.488       .  S
C1211      C1212   1.408       .  A
C1211      H1216   1.082       .  S
C1212      C1229   1.501       .  S
C1213      C1214   1.404       .  A
C1213      H1217   1.081       .  S
C1214      C1215   1.401       .  A
C1214      C1224   1.488       .  S
C1215      H1218   1.083       .  S
C1219      C1220   1.413   1_545  A
C1219      C1224   1.416       .  A
C1220      C1669   1.409       .  A
C1221      C1668   1.409       .  A
C1221      C1222   1.410       .  A
C1222      C1671   1.410       .  A
C1223      C1670   1.410   1_545  A
C1223      C1224   1.412       .  A
C1225      C1226   1.397       .  A
C1226      C1227   1.414       .  A
C1227      C1228   1.403       .  A
C1227     Br1234   1.920       .  S
C1228      C1229   1.409       .  A
C1228      H1233   1.083       .  S
C1230     Br1231   1.902   1_455  S
C1235      C1236   1.409       .  A
C1235      C1240   1.403       .  A
C1235      H1242   1.082       .  S
C1236      C1237   1.415       .  A
C1237      C1238   1.398       .  A
C1237     Br1244   1.923       .  S
C1238      C1239   1.402       .  A
C1238      H1243   1.084       .  S
C1239      C1240   1.406       .  A
C1240     Br1241   1.919       .  S
C1245      C1246   1.407       .  A
C1245      C1250   1.405       .  A
C1245      H1700   1.084       .  S
C1246      C1247   1.414       .  A
C1247      C1248   1.395       .  A
C1247     Br1254   1.923       .  S
C1248      C1249   1.402       .  A
C1248      H1253   1.084       .  S
C1249      C1250   1.411       .  A
C1250     Br1251   1.919       .  S
H1252      C1693   1.084       .  S
C1255      C1256   1.403       .  A
C1255      C1260   1.403       .  A
C1255      H1262   1.084       .  S
C1256      C1257   1.408       .  A
C1257      C1258   1.396       .  A
C1257     Br1264   1.916       .  S
C1258      C1259   1.409       .  A
C1258      H1263   1.083       .  S
C1259      C1260   1.421       .  A
C1260     Br1261   1.922       .  S
C1265      C1270   1.401       .  A
C1265      H1272   1.083       .  S
C1266      C1267   1.411       .  A
C1267      C1268   1.397       .  A
C1267     Br1274   1.922       .  S
C1268      H1273   1.083       .  S
C1269      C1270   1.412       .  A
C1270     Br1271   1.921       .  S
C1275      C1276   1.405       .  A
C1275      C1280   1.397       .  A
C1275      H1282   1.083       .  S
C1277      C1278   1.405       .  A
C1277     Br1284   1.923       .  S
C1278      C1279   1.404       .  A
C1278      H1283   1.084       .  S
C1280     Br1281   1.905       .  S
C1285      C1286   1.403       .  A
C1285      C1290   1.393       .  A
C1285      H1292   1.084       .  S
C1286      C1287   1.410       .  A
C1287      C1288   1.399       .  A
C1287     Br1294   1.920       .  S
C1288      C1289   1.405       .  A
C1288      H1293   1.083       .  S
C1289      C1290   1.411       .  A
C1290     Br1291   1.924       .  S
C1295      C1296   1.410       .  A
C1295      C1300   1.396       .  A
C1295      H1302   1.083       .  S
C1296      C1297   1.421       .  A
C1297      C1298   1.396       .  A
C1297     Br1304   1.923       .  S
C1298      C1299   1.396       .  A
C1298      H1303   1.084       .  S
C1299      C1300   1.402       .  A
C1300     Br1301   1.918       .  S
C1305      C1306   1.404       .  A
C1305      C1310   1.403       .  A
C1305      H1312   1.084       .  S
C1306      C1307   1.405       .  A
C1307      C1308   1.392       .  A
C1307     Br1314   1.912       .  S
C1308      C1309   1.405       .  A
C1308      H1313   1.083       .  S
C1309      C1310   1.417       .  A
C1310     Br1311   1.921       .  S
C1315      C1316   1.402       .  A
C1315      C1320   1.400       .  A
C1315      H1322   1.084       .  S
C1316      C1317   1.405       .  A
C1317      C1318   1.393       .  A
C1317     Br1324   1.918       .  S
C1318      C1319   1.407       .  A
C1318      H1323   1.083       .  S
C1319      C1320   1.415       .  A
C1320     Br1321   1.921       .  S
C1325      C1326   1.399       .  A
C1325      C1330   1.401       .  A
C1325      H1332   1.084       .  S
C1326      C1327   1.396       .  A
C1327      C1328   1.393       .  A
C1327     Br1334   1.921       .  S
C1328      C1329   1.409       .  A
C1328      H1333   1.066       .  S
C1329      C1330   1.425       .  A
C1330     Br1331   1.925       .  S
C1335      C1336   1.401       .  A
C1335      C1340   1.393       .  A
C1335      H1342   1.084       .  S
C1336      C1337   1.406       .  A
C1337      C1338   1.400       .  A
C1337     Br1344   1.906       .  S
C1338      C1339   1.405       .  A
C1338      H1343   1.084       .  S
C1339      C1340   1.413       .  A
C1340     Br1341   1.919       .  S
C1345      C1346   1.403       .  A
C1345      C1350   1.401       .  A
C1345      C1443   1.480       .  S
C1346      C1347   1.411       .  A
C1346      H1351   1.081       .  S
C1347      C1348   1.404       .  A
C1347      C1553   1.504       .  S
C1348      C1349   1.403       .  A
C1348      H1352   1.080       .  S
C1349      C1350   1.399       .  A
C1349      C1560   1.479       .  S
C1350      H1353   1.084       .  S
C1354      C1355   1.402       .  A
C1354      C1359   1.401       .  A
C1354      C1530   1.478       .  S
C1355      C1356   1.402       .  A
C1355      H1360   1.084       .  S
C1356      C1357   1.399       .  A
C1356      C1540   1.472       .  S
C1357      C1358   1.399       .  A
C1357      H1361   1.084       .  S
C1358      C1359   1.402       .  A
C1358      C1445   1.474       .  S
C1359      H1362   1.084       .  S
Fe1363     O1379   2.060       .  S
Fe1363     O1369   2.051       .  S
Fe1363     O1600   2.058   1_554  S
Fe1363     O1592   2.055   1_554  S
Fe1363     O1598   1.975       .  S
Fe1364     O1591   2.051       .  S
Fe1364     O1595   2.051       .  S
Fe1364     O1375   2.058       .  S
Fe1364     O1380   2.057       .  S
Fe1364     O1374   1.978       .  S
Fe1365     O1607   2.065       .  S
Fe1365     O1370   2.064       .  S
Fe1365     O1601   2.065       .  S
Fe1365     O1366   2.070       .  S
Fe1365     O1374   1.982       .  S
O1366      C1373   1.269       .  A
O1367     Fe1588   2.051       .  S
O1367      C1381   1.265       .  A
O1368     Fe1587   2.055       .  S
O1368      C1373   1.270       .  A
O1369      C1372   1.266       .  A
O1370      C1382   1.268       .  A
O1371     Fe1588   2.051       .  S
O1371      C1384   1.266       .  A
C1372      C1543   1.481       .  S
C1372      O1377   1.267       .  A
C1373      C1533   1.485       .  S
O1374     Fe1587   1.975       .  S
O1375      C1378   1.268       .  A
O1376     Fe1587   2.058       .  S
O1376      C1378   1.265       .  A
O1377     Fe1589   2.065       .  S
C1378      C1520   1.488       .  S
O1379      C1384   1.266       .  A
O1380      C1382   1.266       .  A
C1381      C1550   1.462       .  S
C1381      O1383   1.269       .  A
C1382      C1563   1.478       .  S
O1383     Fe1589   2.065       .  S
C1384      C1510   1.472       .  S
C1385      C1386   1.395       .  A
C1385      C1390   1.400       .  A
C1385      C1523   1.465       .  S
C1386      C1387   1.397       .  A
C1386      H1391   1.084       .  S
C1387      C1388   1.403       .  A
C1387      C1513   1.476       .  S
C1389      C1447   1.479   1_455  S
Fe1394     O1410   2.076   1_556  S
Fe1394     O1400   2.055   1_556  S
Fe1394     O1631   2.051       .  S
Fe1394     O1623   2.081       .  S
Fe1394     O1629   1.978       .  S
Fe1395     O1622   2.083       .  S
Fe1395     O1626   2.059       .  S
Fe1395     O1406   2.085       .  S
Fe1395     O1411   2.058       .  S
Fe1395     O1405   1.975       .  S
Fe1396     O1638   2.060       .  S
Fe1396     O1401   2.074       .  S
Fe1396     O1632   2.079       .  S
Fe1396     O1397   2.051       .  S
Fe1396     O1405   1.977       .  S
O1397      C1404   1.264       .  A
O1398     Fe1619   2.083   1_554  S
O1398      C1412   1.274       .  A
O1399     Fe1618   2.081       .  S
O1399      C1404   1.270       .  A
O1400      C1403   1.265       .  A
O1401      C1413   1.270       .  A
O1402     Fe1619   2.059   1_554  S
O1402      C1415   1.269       .  A
C1403      C1450   1.483       .  S
C1403      O1408   1.274       .  A
C1404      C1463   1.473       .  S
O1405     Fe1618   1.978       .  S
O1406      C1409   1.271       .  A
O1407     Fe1618   2.051       .  S
O1407      C1409   1.267       .  A
O1408     Fe1620   2.079       .  S
C1409      C1473   1.479       .  S
O1410      C1415   1.269       .  A
O1411      C1413   1.268       .  A
C1412      C1500   1.497       .  S
C1412      O1414   1.266       .  A
C1413      C1490   1.482       .  S
O1414     Fe1620   2.060       .  S
C1415      C1483   1.495       .  S
C1416      C1417   1.405       .  A
C1416      C1421   1.398       .  A
C1416      C1446   1.482       .  S
C1417      C1418   1.407       .  A
C1417      H1422   1.083       .  S
C1418      C1419   1.408       .  A
C1418      C1503   1.492       .  S
C1419      C1420   1.408       .  A
C1419      H1423   1.083   1_655  S
C1420      C1421   1.402       .  A
C1420      C1493   1.487       .  S
C1421      H1424   1.084       .  S
C1425      C1426   1.402       .  A
C1425      C1470   1.486       .  S
C1426      C1427   1.402       .  A
C1426      H1431   1.083       .  S
C1427      C1480   1.484       .  S
C1428      C1429   1.406       .  A
C1428      H1432   1.084       .  S
C1429      C1430   1.404       .  A
C1429      C1444   1.486       .  S
C1430      H1433   1.084       .  S
C1434      C1435   1.406       .  A
C1434      C1460   1.488       .  S
C1435      C1436   1.408       .  A
C1435      H1440   1.082       .  S
C1436      C1453   1.502       .  S
C1437      C1438   1.404       .  A
C1437      H1441   1.080       .  S
C1438      C1439   1.401       .  A
C1438      C1448   1.488       .  S
C1439      H1442   1.083       .  S
C1443      C1444   1.413       .  A
C1443      C1448   1.416       .  A
C1445      C1446   1.410       .  A
C1447      C1448   1.412       .  A
C1449      C1450   1.397       .  A
C1450      C1451   1.414       .  A
C1451      C1452   1.403       .  A
C1451     Br1458   1.920       .  S
C1452      C1453   1.409       .  A
C1452      H1457   1.083       .  S
C1454     Br1455   1.903   1_455  S
C1459      C1460   1.409       .  A
C1459      C1464   1.403       .  A
C1459      H1466   1.082       .  S
C1460      C1461   1.415       .  A
C1461      C1462   1.398       .  A
C1461     Br1468   1.923       .  S
C1462      C1463   1.402       .  A
C1462      H1467   1.084       .  S
C1463      C1464   1.406       .  A
C1464     Br1465   1.919       .  S
C1469      C1470   1.407       .  A
C1469      C1474   1.405       .  A
C1470      C1471   1.414       .  A
C1471      C1472   1.395       .  A
C1471     Br1478   1.923       .  S
C1472      C1473   1.402       .  A
C1472      H1477   1.084       .  S
C1473      C1474   1.411       .  A
C1474     Br1475   1.919       .  S
C1479      C1480   1.403       .  A
C1479      C1484   1.403       .  A
C1479      H1486   1.084       .  S
C1480      C1481   1.408       .  A
C1481      C1482   1.396       .  A
C1481     Br1488   1.916   1_565  S
C1482      C1483   1.409       .  A
C1482      H1487   1.083       .  S
C1483      C1484   1.421       .  A
C1484     Br1485   1.922       .  S
C1489      C1494   1.401       .  A
C1489      H1496   1.083       .  S
C1490      C1491   1.411       .  A
C1491      C1492   1.397       .  A
C1491     Br1498   1.922       .  S
C1492      H1497   1.083       .  S
C1493      C1494   1.412       .  A
C1494     Br1495   1.921       .  S
C1499      C1500   1.405       .  A
C1499      C1504   1.397       .  A
C1499      H1506   1.083       .  S
C1501      C1502   1.405       .  A
C1501     Br1508   1.923       .  S
C1502      C1503   1.404       .  A
C1502      H1507   1.084       .  S
C1504     Br1505   1.905       .  S
C1509      C1510   1.403       .  A
C1509      C1514   1.393       .  A
C1509      H1516   1.084       .  S
C1510      C1511   1.410       .  A
C1511      C1512   1.399       .  A
C1511     Br1518   1.920       .  S
C1512      C1513   1.405       .  A
C1512      H1517   1.083       .  S
C1513      C1514   1.411       .  A
C1514     Br1515   1.924       .  S
C1519      C1520   1.410       .  A
C1519      C1524   1.396       .  A
C1519      H1526   1.083       .  S
C1520      C1521   1.421       .  A
C1521      C1522   1.396       .  A
C1521     Br1528   1.923       .  S
C1522      C1523   1.396       .  A
C1522      H1527   1.084       .  S
C1523      C1524   1.402       .  A
C1524     Br1525   1.918       .  S
C1529      C1530   1.404       .  A
C1529      C1534   1.403       .  A
C1529      H1536   1.084       .  S
C1530      C1531   1.405       .  A
C1531      C1532   1.392       .  A
C1531     Br1538   1.912       .  S
C1532      C1533   1.405       .  A
C1532      H1537   1.083       .  S
C1533      C1534   1.417       .  A
C1534     Br1535   1.921       .  S
C1539      C1540   1.402       .  A
C1539      C1544   1.400       .  A
C1539      H1546   1.084       .  S
C1540      C1541   1.405       .  A
C1541      C1542   1.394       .  A
C1541     Br1548   1.918       .  S
C1542      C1543   1.407       .  A
C1542      H1547   1.083       .  S
C1543      C1544   1.415       .  A
C1544     Br1545   1.921       .  S
C1549      C1550   1.399       .  A
C1549      C1554   1.401       .  A
C1549      H1556   1.084       .  S
C1550      C1551   1.396       .  A
C1551      C1552   1.393       .  A
C1551     Br1558   1.921       .  S
C1552      C1553   1.408       .  A
C1552      H1557   1.066       .  S
C1553      C1554   1.425       .  A
C1554     Br1555   1.925       .  S
C1559      C1560   1.401       .  A
C1559      C1564   1.393       .  A
C1559      H1566   1.084       .  S
C1560      C1561   1.406       .  A
C1561      C1562   1.400       .  A
C1561     Br1568   1.906       .  S
C1562      C1563   1.405       .  A
C1562      H1567   1.084       .  S
C1563      C1564   1.413       .  A
C1564     Br1565   1.919       .  S
C1569      C1570   1.403       .  A
C1569      C1574   1.401       .  A
C1569      C1667   1.479       .  S
C1570      C1571   1.411       .  A
C1570      H1575   1.081       .  S
C1571      C1572   1.404       .  A
C1571      C1777   1.504       .  S
C1572      C1573   1.403       .  A
C1572      H1576   1.080       .  S
C1573      C1574   1.399       .  A
C1573      C1784   1.479       .  S
C1574      H1577   1.084       .  S
C1578      C1579   1.402       .  A
C1578      C1583   1.401       .  A
C1578      C1754   1.478       .  S
C1579      C1580   1.402       .  A
C1579      H1584   1.084       .  S
C1580      C1581   1.399       .  A
C1580      C1764   1.472       .  S
C1581      C1582   1.399       .  A
C1581      H1585   1.084       .  S
C1582      C1583   1.402       .  A
C1582      C1669   1.474       .  S
C1583      H1586   1.084       .  S
Fe1587     O1603   2.060       .  S
Fe1587     O1593   2.051       .  S
Fe1588     O1599   2.058   1_554  S
Fe1588     O1604   2.057   1_554  S
Fe1588     O1598   1.978       .  S
Fe1589     O1594   2.064   1_554  S
Fe1589     O1590   2.069   1_554  S
Fe1589     O1598   1.982       .  S
O1590      C1597   1.269       .  A
O1591      C1605   1.265       .  A
O1592      C1597   1.270       .  A
O1593      C1596   1.266       .  A
O1594      C1606   1.268       .  A
O1595      C1608   1.266       .  A
C1596      C1767   1.481       .  S
C1596      O1601   1.267       .  A
C1597      C1757   1.485       .  S
O1599      C1602   1.268       .  A
O1600      C1602   1.265       .  A
C1602      C1744   1.488       .  S
O1603      C1608   1.266       .  A
O1604      C1606   1.266       .  A
C1605      C1774   1.462       .  S
C1605      O1607   1.269       .  A
C1606      C1787   1.478       .  S
C1608      C1734   1.472       .  S
C1609      C1610   1.395       .  A
C1609      C1614   1.400       .  A
C1609      C1747   1.465       .  S
C1610      C1611   1.397       .  A
C1610      H1615   1.084       .  S
C1611      C1612   1.403       .  A
C1611      C1737   1.476       .  S
C1613      C1671   1.479   1_455  S
Fe1618     O1634   2.076       .  S
Fe1618     O1624   2.055       .  S
Fe1619     O1630   2.085       .  S
Fe1619     O1635   2.058       .  S
Fe1619     O1629   1.975       .  S
Fe1620     O1625   2.074   1_554  S
Fe1620     O1621   2.051   1_554  S
Fe1620     O1629   1.977   1_554  S
O1621      C1628   1.264       .  A
O1622      C1636   1.274       .  A
O1623      C1628   1.270       .  A
O1624      C1627   1.265       .  A
O1625      C1637   1.270       .  A
O1626      C1639   1.269       .  A
C1627      C1674   1.484       .  S
C1627      O1632   1.274       .  A
C1628      C1687   1.473       .  S
O1630      C1633   1.271       .  A
O1631      C1633   1.267       .  A
C1633      C1697   1.479       .  S
O1634      C1639   1.269       .  A
O1635      C1637   1.268       .  A
C1636      C1724   1.496       .  S
C1636      O1638   1.266       .  A
C1637      C1714   1.482       .  S
C1639      C1707   1.495       .  S
C1640      C1641   1.405       .  A
C1640      C1645   1.398       .  A
C1640      C1670   1.482       .  S
C1641      C1642   1.407       .  A
C1641      H1646   1.083       .  S
C1642      C1643   1.408       .  A
C1642      C1727   1.492       .  S
C1643      C1644   1.408       .  A
C1643      H1647   1.083   1_655  S
C1644      C1645   1.402       .  A
C1644      C1717   1.487       .  S
C1645      H1648   1.084       .  S
C1649      C1650   1.402       .  A
C1649      C1694   1.486       .  S
C1650      C1651   1.402       .  A
C1650      H1655   1.083       .  S
C1651      C1704   1.484       .  S
C1652      C1653   1.406       .  A
C1652      H1656   1.084       .  S
C1653      C1654   1.404       .  A
C1653      C1668   1.486       .  S
C1654      H1657   1.084       .  S
C1658      C1659   1.406       .  A
C1658      C1684   1.488       .  S
C1659      C1660   1.408       .  A
C1659      H1664   1.082       .  S
C1660      C1677   1.501       .  S
C1661      C1662   1.404       .  A
C1661      H1665   1.081       .  S
C1662      C1663   1.401       .  A
C1662      C1672   1.488       .  S
C1663      H1666   1.083       .  S
C1667      C1668   1.413       .  A
C1667      C1672   1.416       .  A
C1669      C1670   1.410       .  A
C1671      C1672   1.412       .  A
C1673      C1674   1.397       .  A
C1674      C1675   1.414       .  A
C1675      C1676   1.403       .  A
C1675     Br1682   1.920       .  S
C1676      C1677   1.409       .  A
C1676      H1681   1.083       .  S
C1678     Br1679   1.902   1_455  S
C1683      C1684   1.409       .  A
C1683      C1688   1.403       .  A
C1683      H1690   1.082       .  S
C1684      C1685   1.415       .  A
C1685      C1686   1.398       .  A
C1685     Br1692   1.923       .  S
C1686      C1687   1.402       .  A
C1686      H1691   1.084       .  S
C1687      C1688   1.406       .  A
C1688     Br1689   1.919       .  S
C1693      C1694   1.407       .  A
C1693      C1698   1.405       .  A
C1694      C1695   1.414       .  A
C1695      C1696   1.395       .  A
C1695     Br1702   1.923       .  S
C1696      C1697   1.402       .  A
C1696      H1701   1.084       .  S
C1697      C1698   1.411       .  A
C1698     Br1699   1.919       .  S
C1703      C1704   1.403       .  A
C1703      C1708   1.403       .  A
C1703      H1710   1.084       .  S
C1704      C1705   1.408       .  A
C1705      C1706   1.396       .  A
C1705     Br1712   1.916   1_565  S
C1706      C1707   1.409       .  A
C1706      H1711   1.083       .  S
C1707      C1708   1.421       .  A
C1708     Br1709   1.922       .  S
C1713      C1718   1.401       .  A
C1713      H1720   1.083       .  S
C1714      C1715   1.411       .  A
C1715      C1716   1.397       .  A
C1715     Br1722   1.922       .  S
C1716      H1721   1.083       .  S
C1717      C1718   1.412       .  A
C1718     Br1719   1.921       .  S
C1723      C1724   1.405       .  A
C1723      C1728   1.397       .  A
C1723      H1730   1.083       .  S
C1725      C1726   1.405       .  A
C1725     Br1732   1.923       .  S
C1726      C1727   1.404       .  A
C1726      H1731   1.084       .  S
C1728     Br1729   1.905       .  S
C1733      C1734   1.403       .  A
C1733      C1738   1.393       .  A
C1733      H1740   1.084       .  S
C1734      C1735   1.410       .  A
C1735      C1736   1.399       .  A
C1735     Br1742   1.920       .  S
C1736      C1737   1.405       .  A
C1736      H1741   1.083       .  S
C1737      C1738   1.411       .  A
C1738     Br1739   1.924       .  S
C1743      C1744   1.410       .  A
C1743      C1748   1.396       .  A
C1743      H1750   1.083       .  S
C1744      C1745   1.421       .  A
C1745      C1746   1.396       .  A
C1745     Br1752   1.923       .  S
C1746      C1747   1.396       .  A
C1746      H1751   1.084       .  S
C1747      C1748   1.402       .  A
C1748     Br1749   1.918       .  S
C1753      C1754   1.404       .  A
C1753      C1758   1.403       .  A
C1753      H1760   1.084       .  S
C1754      C1755   1.405       .  A
C1755      C1756   1.392       .  A
C1755     Br1762   1.912       .  S
C1756      C1757   1.405       .  A
C1756      H1761   1.083       .  S
C1757      C1758   1.417       .  A
C1758     Br1759   1.921       .  S
C1763      C1764   1.402       .  A
C1763      C1768   1.400       .  A
C1763      H1770   1.084       .  S
C1764      C1765   1.405       .  A
C1765      C1766   1.393       .  A
C1765     Br1772   1.918       .  S
C1766      C1767   1.407       .  A
C1766      H1771   1.083       .  S
C1767      C1768   1.415       .  A
C1768     Br1769   1.921       .  S
C1773      C1774   1.399       .  A
C1773      C1778   1.401       .  A
C1773      H1780   1.084       .  S
C1774      C1775   1.396       .  A
C1775      C1776   1.393       .  A
C1775     Br1782   1.921       .  S
C1776      C1777   1.409       .  A
C1776      H1781   1.066       .  S
C1777      C1778   1.425       .  A
C1778     Br1779   1.925       .  S
C1783      C1784   1.401       .  A
C1783      C1788   1.393       .  A
C1783      H1790   1.084       .  S
C1784      C1785   1.406       .  A
C1785      C1786   1.400       .  A
C1785     Br1792   1.906       .  S
C1786      C1787   1.405       .  A
C1786      H1791   1.084       .  S
C1787      C1788   1.413       .  A
C1788     Br1789   1.919       .  S
