geometry optimzed in LAMMPS
_audit_creation_date              2020-11-30 
_audit_creation_method            'lammps2cif' 
_symmetry_space_group_name_H-M    'P1' 
_symmetry_Int_Tables_number       1 
_symmetry_cell_setting            triclinic 
loop_ 
_symmetry_equiv_pos_as_xyz 
  x,y,z 
_cell_length_a                    35.37629713 
_cell_length_b                    35.44112560688677 
_cell_length_c                    35.345474719343876 
_cell_angle_alpha                 90.10368525264987 
_cell_angle_beta                  89.59093174545217 
_cell_angle_gamma                 89.92350424753785 
loop_ 
_atom_site_label 
_atom_site_type_symbol 
_atom_site_fract_x 
_atom_site_fract_y 
_atom_site_fract_z 
_atom_site_charge 
O1          O  0.79823315  0.68909787  0.85260948    -0.86000
C2          C  0.80332564  0.72103001  0.63460410     1.14000
O3          O  0.74656392  0.72233503  0.78988017    -1.33800
O4          O  0.86516907  0.74644920  0.70649237    -0.87500
O5          O  0.74170568  0.70578571  0.87634216    -0.88100
O6          O  0.76268598  0.79857385  0.83620319    -0.77000
O7          O  0.82898052  0.71353830  0.77548357    -0.99100
C8          C  0.78375644  0.85161193  0.74148672     1.24100
O9          O  0.71539961  0.78652469  0.75720872    -1.33900
Mn10       Mn  0.72278516  0.73044610  0.73389863     1.82100
O11         O  0.79171790  0.83307952  0.77063227    -0.76000
O12         O  0.84255494  0.80318363  0.69000465    -0.85400
C13         C  0.71074720  0.76805281  0.65926034     1.15200
C14         C  0.86987480  0.78067709  0.69690260     1.09900
O15         O  0.66688884  0.71149504  0.74384183    -0.77000
O16         O  0.77913814  0.75310624  0.72463957    -1.30700
O17         O  0.66419949  0.73725777  0.79816769    -0.96200
C18         C  0.69331633  0.87672747  0.78637293     1.08600
Mn19       Mn  0.78385898  0.79487526  0.68164318     1.48600
O20         O  0.68551706  0.84979879  0.80902321    -0.85400
Mn21       Mn  0.70387580  0.71908230  0.83275589     1.49600
O22         O  0.74974484  0.63685401  0.80714271    -0.89300
C23         C  0.84503693  0.73897899  0.79212602     1.21800
C24         C  0.71503783  0.63322469  0.81569151     1.13900
Mn25       Mn  0.77113568  0.77769983  0.78045817     1.81000
O26         O  0.72890908  0.79260831  0.67478069    -0.94400
Mn27       Mn  0.78858630  0.67954155  0.79417541     1.49300
C28         C  0.77610365  0.69635681  0.88040960     1.10400
Mn29       Mn  0.71165644  0.82812867  0.71393295     1.49900
C30         C  0.62571317  0.81191322  0.72825931     1.13300
O31         O  0.70819652  0.77385352  0.84020094    -1.00200
O32         O  0.79532046  0.75578119  0.63839358    -0.89900
C33         C  0.73373145  0.79099099  0.85547123     1.24600
O34         O  0.76670044  0.83565524  0.71622882    -1.00600
O35         O  0.81048261  0.69931796  0.66244436    -0.88000
O36         O  0.65310282  0.81854925  0.70548798    -0.87600
O37         O  0.69329200  0.66105223  0.82321232    -0.87600
Mn38       Mn  0.82072139  0.70967479  0.72056606     1.47900
O39         O  0.70237082  0.73916896  0.67806573    -0.76100
C40         C  0.64833483  0.71979888  0.77310901     1.17600
O41         O  0.82667586  0.76830029  0.79998229    -0.74800
O42         O  0.73069228  0.67446650  0.71440175    -0.74500
Mn43       Mn  0.67362741  0.79192037  0.80058393     1.51100
O44         O  0.70019878  0.87211354  0.75144251    -0.86800
O45         O  0.78495378  0.67137416  0.73946398    -0.94300
O46         O  0.63012478  0.80474330  0.76307971    -0.89300
C47         C  0.75948272  0.65561018  0.72270825     1.15400
O48         O  0.84699215  0.68029483  0.20676258    -0.86000
C49         C  0.62986214  0.71215755  0.19793677     1.14000
O50         O  0.78308825  0.71105986  0.25782749    -1.33800
O51         O  0.70435352  0.73812207  0.13854776    -0.87500
O52         O  0.86887043  0.69463856  0.26432889    -0.88100
O53         O  0.82992541  0.78700726  0.24305618    -0.77000
O54         O  0.77123292  0.70346634  0.17528517    -0.99100
C55         C  0.73579577  0.84079870  0.22188290     1.24100
O56         O  0.74968648  0.77489539  0.28948875    -1.33900
Mn57       Mn  0.72678014  0.71872578  0.28113398     1.82100
O58         O  0.76509313  0.82229421  0.21387258    -0.76000
O59         O  0.68740853  0.79452296  0.16204003    -0.85400
C60         C  0.65179041  0.75593483  0.29243117     1.15200
C61         C  0.69560756  0.77265072  0.13442441     1.09900
O62         O  0.73542769  0.69896530  0.33741182    -0.77000
O63         O  0.71900524  0.74239433  0.22492085    -1.30700
O64         O  0.78906478  0.72541854  0.34030826    -0.96200
C65         C  0.77678599  0.86567719  0.31469239     1.08600
Mn66       Mn  0.67649027  0.78472053  0.22020563     1.48600
O67         O  0.80008944  0.83880825  0.32107066    -0.85400
Mn68       Mn  0.82438961  0.70707043  0.30127026     1.49600
O69         O  0.80025601  0.62538393  0.25336651    -0.89300
C70         C  0.78877871  0.72849968  0.15953896     1.21800
C71         C  0.80613098  0.62115958  0.28848385     1.13900
Mn72       Mn  0.77445510  0.76671204  0.23379420     1.81000
O73         O  0.66770497  0.78088765  0.27493587    -0.94400
Mn74       Mn  0.78865735  0.66894266  0.21516116     1.49300
C75         C  0.87385498  0.68802869  0.22942087     1.10400
Mn76       Mn  0.70601729  0.81615172  0.29364656     1.49900
C77         C  0.71823780  0.79847591  0.37905939     1.13300
O78         O  0.83259026  0.76197780  0.29755413    -1.00200
O79         O  0.63365192  0.74663000  0.20673530    -0.89900
C80         C  0.84859766  0.77872436  0.27194648     1.24600
O81         O  0.71029731  0.82486037  0.23883152    -1.00600
O82         O  0.65768671  0.69014883  0.19102208    -0.88000
O83         O  0.69584564  0.80484355  0.35163807    -0.87600
O84         O  0.81328331  0.64867770  0.31079967    -0.87600
Mn85       Mn  0.71619693  0.69994002  0.18228970     1.47900
O86         O  0.67049991  0.72704262  0.30082089    -0.76100
C87         C  0.76420957  0.70764713  0.35622010     1.17600
O88         O  0.79578818  0.75789563  0.17807703    -0.74800
O89         O  0.70771823  0.66271811  0.27176486    -0.74500
Mn90       Mn  0.79187874  0.78020356  0.33171793     1.51100
O91         O  0.74220927  0.86038846  0.30730629    -0.86800
O92         O  0.73376063  0.66031334  0.21742426    -0.94300
O93         O  0.75331046  0.79239645  0.37484877    -0.89300
C94         C  0.71633077  0.64427167  0.24254370     1.15400
O95         O  0.67146418  0.20308952  0.86695910    -0.86000
C96         C  0.70303676  0.20005597  0.64802744     1.14000
O97         O  0.70314968  0.25556359  0.80409570    -1.33800
O98         O  0.72846713  0.13808682  0.72055434    -0.87500
O99         O  0.68717021  0.25954869  0.89065061    -0.88100
O100        O  0.77974508  0.23986363  0.84938993    -0.77000
O101        O  0.69526898  0.17388781  0.78910104    -0.99100
C102        C  0.83250418  0.21779378  0.75336668     1.24100
O103        O  0.76746003  0.28761751  0.77129239    -1.33900
Mn104      Mn  0.71111856  0.28011683  0.74849131     1.82100
O105        O  0.81480793  0.21034068  0.78341011    -0.76000
O106        O  0.78496332  0.16078272  0.70295318    -0.85400
C107        C  0.74881466  0.29326145  0.67428375     1.15200
C108        C  0.76271006  0.13341338  0.71071790     1.09900
O109        O  0.69100635  0.33597339  0.75892574    -0.77000
O110        O  0.73430965  0.22397218  0.73840005    -1.30700
O111        O  0.71705940  0.33761856  0.81261743    -0.96200
C112        C  0.85812155  0.31115464  0.80019957     1.08600
Mn113      Mn  0.77617650  0.21975076  0.69502243     1.48600
O114        O  0.83077525  0.31948033  0.82255585    -0.85400
Mn115      Mn  0.69904444  0.29774976  0.84704584     1.49600
O116        O  0.61672501  0.25090466  0.82129325    -0.89300
C117        C  0.72062429  0.15758006  0.80547326     1.21800
C118        C  0.61229733  0.28562442  0.82890878     1.13900
Mn119      Mn  0.75902204  0.23147808  0.79407715     1.81000
O120        O  0.77375466  0.27490998  0.68901913    -0.94400
Mn121      Mn  0.66062621  0.21321464  0.80836710     1.49300
C122        C  0.67967313  0.22479390  0.89471679     1.10400
Mn123      Mn  0.80963594  0.29127658  0.72806947     1.49900
C124        C  0.79455638  0.37759508  0.74181050     1.13300
O125        O  0.75440297  0.29425929  0.85431921    -1.00200
O126        O  0.73759630  0.20876842  0.65174079    -0.89900
C127        C  0.77196174  0.26848319  0.86898829     1.24600
O128        O  0.81618792  0.23622727  0.72958414    -1.00600
O129        O  0.68128248  0.19225574  0.67596195    -0.88000
O130        O  0.80180846  0.34997553  0.71966784    -0.87600
O131        O  0.63993709  0.30747836  0.83712219    -0.87600
Mn132      Mn  0.69127060  0.18209803  0.73431170     1.47900
O133        O  0.71992359  0.30129227  0.69340573    -0.76100
C134        C  0.69910095  0.35396960  0.78843506     1.17600
O135        O  0.74991019  0.17575179  0.81346458    -0.74800
O136        O  0.65533653  0.27171267  0.72884492    -0.74500
Mn137      Mn  0.77214704  0.32950268  0.81441079     1.51100
O138        O  0.85365445  0.30205129  0.76577315    -0.86800
O139        O  0.65213826  0.21708784  0.75335295    -0.94300
O140        O  0.78478069  0.37340569  0.77625765    -0.89300
C141        C  0.63662404  0.24253045  0.73621050     1.15400
O142        O  0.18412453  0.33480950  0.84662638    -0.86000
C143        C  0.17427738  0.28439809  0.63795839     1.14000
O144        O  0.23534941  0.29549142  0.78706741    -1.33800
O145        O  0.11621333  0.26300911  0.71321499    -0.87500
O146        O  0.24096669  0.32167560  0.87091640    -0.88100
O147        O  0.22146426  0.22219838  0.84008298    -0.77000
O148        O  0.15256890  0.30233413  0.77642659    -0.99100
C149        C  0.20113660  0.16217387  0.74718689     1.24100
O150        O  0.26707571  0.23006332  0.75749988    -1.33900
Mn151      Mn  0.25839398  0.28417042  0.73068062     1.82100
O152        O  0.19282792  0.18174481  0.77596953    -0.76000
O153        O  0.13929961  0.20529604  0.70082380    -0.85400
C154        C  0.26724843  0.24336406  0.65460025     1.15200
C155        C  0.11192143  0.22790054  0.70800648     1.09900
O156        O  0.31496682  0.30360392  0.73805386    -0.77000
O157        O  0.20246623  0.25970656  0.72572134    -1.30700
O158        O  0.31754645  0.28156595  0.79414349    -0.96200
C159        C  0.29249368  0.14191976  0.78982030     1.08600
Mn160      Mn  0.19703105  0.21466263  0.68584253     1.48600
O161        O  0.29721972  0.16962822  0.81256228    -0.85400
Mn162      Mn  0.27847248  0.30293944  0.82829942     1.49600
O163        O  0.23135026  0.38254503  0.79636964    -0.89300
C164        C  0.13777316  0.27804307  0.79599838     1.21800
C165        C  0.26623339  0.38695912  0.80308722     1.13900
Mn166      Mn  0.21188485  0.23885462  0.78250332     1.81000
O167        O  0.25159912  0.21814733  0.67264146    -0.94400
Mn168      Mn  0.19285791  0.33857046  0.78888627     1.49300
C169        C  0.20664003  0.33204744  0.87410899     1.10400
Mn170      Mn  0.27203029  0.18707019  0.71534958     1.49900
C171        C  0.35670044  0.20552504  0.72837520     1.13300
O172        O  0.27521509  0.24850208  0.84222755    -1.00200
O173        O  0.18123743  0.24972356  0.64225858    -0.89900
C174        C  0.24971373  0.23214342  0.85924727     1.24600
O175        O  0.21766473  0.17762120  0.72118529    -1.00600
O176        O  0.16844650  0.30767354  0.66443991    -0.88000
O177        O  0.32988832  0.19928007  0.70510062    -0.87600
O178        O  0.28830126  0.35990804  0.81219129    -0.87600
Mn179      Mn  0.15959386  0.30174972  0.72158876     1.47900
O180        O  0.27643887  0.27254603  0.67305596    -0.76100
C181        C  0.33375339  0.29662476  0.76747330     1.17600
O182        O  0.15657180  0.24895578  0.80371417    -0.74800
O183        O  0.24857022  0.33898743  0.70763507    -0.74500
Mn184      Mn  0.30856711  0.22737839  0.80111426     1.51100
O185        O  0.28672697  0.14584814  0.75468684    -0.86800
O186        O  0.19469762  0.34256450  0.73411412    -0.94300
O187        O  0.35150264  0.21220122  0.76328706    -0.89300
C188        C  0.21900291  0.35758976  0.71469081     1.15400
O189        O  0.31108851  0.81709742  0.83827141    -0.86000
C190        C  0.27582186  0.81839965  0.61984719     1.14000
O191        O  0.27862232  0.76438152  0.77568423    -1.33800
O192        O  0.25041542  0.88121347  0.69430264    -0.87500
O193        O  0.29515190  0.76048707  0.86164945    -0.88100
O194        O  0.20197562  0.77872350  0.82293198    -0.77000
O195        O  0.28559811  0.84680835  0.76143459    -0.99100
C196        C  0.14816375  0.79847655  0.72871527     1.24100
O197        O  0.21480776  0.73104848  0.74381592    -1.33900
Mn198      Mn  0.27087437  0.74005849  0.71985744     1.82100
O199        O  0.16640272  0.80714584  0.75783195    -0.76000
O200        O  0.19373793  0.85730209  0.67969215    -0.85400
C201        C  0.23295111  0.72603728  0.64581225     1.15200
C202        C  0.21545150  0.88504056  0.68769607     1.09900
O203        O  0.29146262  0.68484066  0.72903548    -0.77000
O204        O  0.24643845  0.79544418  0.71106410    -1.30700
O205        O  0.26576931  0.68175790  0.78347757    -0.96200
C206        C  0.12505050  0.70593279  0.77469279     1.08600
Mn207      Mn  0.20369466  0.79868017  0.66901381     1.48600
O208        O  0.15256012  0.69862986  0.79664722    -0.85400
Mn209      Mn  0.28295532  0.72206308  0.81818543     1.49600
O210        O  0.36430651  0.76977718  0.79206925    -0.89300
C211        C  0.26024215  0.86221531  0.77925223     1.21800
C212        C  0.36860723  0.73535117  0.80084005     1.13900
Mn213      Mn  0.22243502  0.78743234  0.76710297     1.81000
O214        O  0.20737666  0.74345375  0.66124069    -0.94400
Mn215      Mn  0.32060533  0.80740973  0.77952238     1.49300
C216        C  0.30402921  0.79494264  0.86594437     1.10400
Mn217      Mn  0.17262198  0.72566694  0.70142618     1.49900
C218        C  0.18997514  0.63940001  0.71521179     1.13300
O219        O  0.22803193  0.72481214  0.82612553    -1.00200
O220        O  0.24116592  0.81071094  0.62477889    -0.89900
C221        C  0.21013294  0.74985671  0.84174152     1.24600
O222        O  0.16445828  0.78058086  0.70412262    -1.00600
O223        O  0.29800876  0.82689437  0.64709448    -0.88000
O224        O  0.18246462  0.66666320  0.69271239    -0.87600
O225        O  0.34124108  0.71314479  0.80839794    -0.87600
Mn226      Mn  0.28869153  0.83799990  0.70615353     1.47900
O227        O  0.26226576  0.71919824  0.66441679    -0.76100
C228        C  0.28309472  0.66608272  0.75795589     1.17600
O229        O  0.23112234  0.84334639  0.78696663    -0.74800
O230        O  0.32689888  0.74947343  0.69952203    -0.74500
Mn231      Mn  0.21085583  0.68912727  0.78693734     1.51100
O232        O  0.12914405  0.71381426  0.73992126    -0.86800
O233        O  0.32850722  0.80382589  0.72449148    -0.94300
O234        O  0.19876037  0.64449484  0.74963689    -0.89300
C235        C  0.34500935  0.77890010  0.70738680     1.15400
O236        O  0.64081754  0.17388534  0.31997344    -0.86000
C237        C  0.85023608  0.21978099  0.34644249     1.14000
O238        O  0.70404336  0.21045986  0.27216984    -1.33800
O239        O  0.76918855  0.24688669  0.39377804    -0.87500
O240        O  0.62164118  0.18420690  0.26063675    -0.88100
O241        O  0.65150611  0.28493697  0.28098477    -0.77000
O242        O  0.70951580  0.20647998  0.35476602    -0.99100
C243        C  0.74653032  0.34371181  0.30445630     1.24100
O244        O  0.73674172  0.27371423  0.24007985    -1.33900
Mn245      Mn  0.76148936  0.21912427  0.25191126     1.82100
O246        O  0.71643950  0.32567996  0.31165152    -0.76000
O247        O  0.78769434  0.30193675  0.36847318    -0.85400
C248        C  0.83842388  0.25697638  0.24458171     1.15200
C249        C  0.77591227  0.28187081  0.39600315     1.09900
O250        O  0.75662016  0.19791679  0.19547067    -0.77000
O251        O  0.76448086  0.24549445  0.30731321    -1.30700
O252        O  0.70207189  0.22252728  0.18908630    -0.96200
C253        C  0.70835544  0.36191481  0.21173809     1.08600
Mn254      Mn  0.80565599  0.28909217  0.31291001     1.48600
O255        O  0.68472751  0.33502092  0.20690469    -0.85400
Mn256      Mn  0.66599195  0.20238605  0.22636574     1.49600
O257        O  0.69335740  0.12374133  0.27766587    -0.89300
C258        C  0.68991442  0.23141013  0.36842928     1.21800
C259        C  0.68967895  0.11880312  0.24229874     1.13900
Mn260      Mn  0.70869385  0.26784217  0.29418700     1.81000
O261        O  0.82078022  0.28306678  0.25906929    -0.94400
Mn262      Mn  0.69898792  0.16876783  0.31551550     1.49300
C263        C  0.61570471  0.17472493  0.29469009     1.10400
Mn264      Mn  0.78038227  0.31495083  0.23576672     1.49900
C265        C  0.77054426  0.29521949  0.15100105     1.13300
O266        O  0.65205203  0.25679278  0.22798476    -1.00200
O267        O  0.84745007  0.25311277  0.33371132    -0.89900
C268        C  0.63356068  0.27349256  0.25232764     1.24600
O269        O  0.77252116  0.32654966  0.28945255    -1.00600
O270        O  0.82252137  0.19775591  0.35143260    -0.88000
O271        O  0.79287780  0.30047371  0.17879253    -0.87600
O272        O  0.68280815  0.14544015  0.21901287    -0.87600
Mn273      Mn  0.76447343  0.20556882  0.35257847     1.47900
O274        O  0.81971054  0.22798890  0.23587712    -0.76100
C275        C  0.72893598  0.20615831  0.17468522     1.17600
O276        O  0.68416165  0.26047607  0.34890634    -0.74800
O277        O  0.78267417  0.16444605  0.26522836    -0.74500
Mn278      Mn  0.69532935  0.27682046  0.19656979     1.51100
O279        O  0.74317005  0.35678147  0.21817806    -0.86800
O280        O  0.75391067  0.16332270  0.31820230    -0.94300
O281        O  0.73519190  0.29044840  0.15484159    -0.89300
C282        C  0.77451669  0.14737892  0.29540590     1.15400
O283        O  0.19813076  0.68519638  0.14590355    -0.86000
C284        C  0.20246124  0.71548764  0.36343280     1.14000
O285        O  0.25196573  0.71432989  0.20846244    -1.33800
O286        O  0.13775091  0.73912061  0.29449139    -0.87500
O287        O  0.25384099  0.70298898  0.12120135    -0.88100
O288        O  0.23660518  0.79183403  0.16351812    -0.77000
O289        O  0.17048964  0.70609923  0.22475341    -0.99100
C290        C  0.21897753  0.84769488  0.25738283     1.24100
O291        O  0.28525923  0.77744380  0.24116857    -1.33900
Mn292      Mn  0.27675958  0.72093443  0.26437797     1.82100
O293        O  0.20941969  0.82822697  0.22895456    -0.76000
O294        O  0.15910858  0.79761570  0.30593235    -0.85400
C295        C  0.28929778  0.75974135  0.33940367     1.15200
C296        C  0.13235217  0.77396172  0.30070757     1.09900
O297        O  0.33206804  0.69985671  0.25313137    -0.77000
O298        O  0.22166470  0.74560146  0.27394093    -1.30700
O299        O  0.33425190  0.72580859  0.19892982    -0.96200
C300        C  0.31389776  0.86524306  0.21054212     1.08600
Mn301      Mn  0.21768826  0.78907790  0.31578572     1.48600
O302        O  0.32041512  0.83746845  0.18905710    -0.85400
Mn303      Mn  0.29332943  0.71213385  0.16401417     1.49600
O304        O  0.24731223  0.62962053  0.18642885    -0.89300
C305        C  0.15375174  0.73143568  0.20864470     1.21800
C306        C  0.28142470  0.62716968  0.17514300     1.13900
Mn307      Mn  0.22849625  0.77058249  0.21879010     1.81000
O308        O  0.27247924  0.78517637  0.32337443    -0.94400
Mn309      Mn  0.20936018  0.67200340  0.20358642     1.49300
C310        C  0.21915265  0.69466553  0.11790023     1.10400
Mn311      Mn  0.29082682  0.81989932  0.28379699     1.49900
C312        C  0.37627757  0.79949417  0.27022813     1.13300
O313        O  0.29101970  0.76656623  0.15874529    -1.00200
O314        O  0.20624114  0.75070903  0.35873781    -0.89900
C315        C  0.26576933  0.78496224  0.14428526     1.24600
O316        O  0.23595644  0.83079586  0.28223242    -1.00600
O317        O  0.19518589  0.69232953  0.33667632    -0.88000
O318        O  0.34882070  0.80811200  0.29222030    -0.87600
O319        O  0.30272776  0.65509511  0.16916039    -0.87600
Mn320      Mn  0.18075918  0.70165687  0.27920432     1.47900
O321        O  0.29699300  0.73018710  0.32073958    -0.76100
C322        C  0.34994261  0.70689506  0.22304453     1.17600
O323        O  0.17167352  0.76123288  0.20078533    -0.74800
O324        O  0.26748042  0.66318625  0.28359767    -0.74500
Mn325      Mn  0.32768586  0.78047889  0.19788111     1.51100
O326        O  0.30470946  0.86253983  0.24522394    -0.86800
O327        O  0.21359548  0.66073059  0.25840289    -0.94300
O328        O  0.37210694  0.79052304  0.23567665    -0.89300
C329        C  0.23866741  0.64386692  0.27499571     1.15400
C330        C  0.51400933  0.12627280  0.30868501     0.82400
N331        N  0.50972728  0.09219946  0.32561276    -0.75900
C332        C  0.47456457  0.07781971  0.33142470     0.84900
N333        N  0.44397793  0.09809611  0.32041136    -0.75800
C334        C  0.44863788  0.13186376  0.30318527     0.84900
N335        N  0.48349736  0.14614375  0.29777840    -0.77600
C336        C  0.52063478  0.29346540  0.22273675     0.82400
N337        N  0.52161359  0.31386654  0.19021701    -0.75900
C338        C  0.48933752  0.32524409  0.17301841     0.84900
N339        N  0.45532400  0.31631395  0.18851981    -0.75800
C340        C  0.45254588  0.29547601  0.22058304     0.84900
N341        N  0.48564036  0.28398910  0.23817905    -0.77600
C342        C  0.20518545  0.46507074  0.30665114     0.82400
N343        N  0.22244552  0.49793714  0.29406967    -0.75900
C344        C  0.20739678  0.53299480  0.30357392     0.84900
N345        N  0.17521628  0.53429137  0.32511735    -0.75800
C346        C  0.15833362  0.50203277  0.33750343     0.84900
N347        N  0.17375781  0.46808550  0.32856666    -0.77600
C348        C  0.32013288  0.52211740  0.15420319     0.82400
N349        N  0.30407404  0.49578959  0.17661973    -0.75900
C350        C  0.31471590  0.45947274  0.17325180     0.84900
N351        N  0.34093608  0.44905900  0.14735470    -0.75800
C352        C  0.35646815  0.47509337  0.12424831     0.84900
N353        N  0.34652327  0.51204572  0.12787747    -0.77600
C354        C  0.81365493  0.48692650  0.70734570     0.82400
N355        N  0.78961069  0.51625993  0.71489008    -0.75900
C356        C  0.79855810  0.55171950  0.70276839     0.84900
N357        N  0.83103368  0.55760951  0.68327497    -0.75800
C358        C  0.85519957  0.52892802  0.67596749     0.84900
N359        N  0.84633056  0.49345309  0.68786238    -0.77600
C360        C  0.68230689  0.52509591  0.83669262     0.82400
N361        N  0.68682413  0.49347404  0.81491515    -0.75900
C362        C  0.67620924  0.45907937  0.82886982     0.84900
N363        N  0.66099683  0.45674231  0.86427502    -0.75800
C364        C  0.65732125  0.48817543  0.88614597     0.84900
N365        N  0.66796577  0.52207046  0.87215941    -0.77600
C366        C  0.46858538  0.19106299  0.70569084     0.82400
N367        N  0.47590883  0.15677991  0.69046899    -0.75900
C368        C  0.51187264  0.14550816  0.68346188     0.84900
N369        N  0.54084584  0.16907715  0.69143716    -0.75800
C370        C  0.53416666  0.20325087  0.70756060     0.84900
N371        N  0.49781745  0.21455075  0.71466213    -0.77600
C372        C  0.43634341  0.31927309  0.80827034     0.82400
N373        N  0.42638563  0.33897434  0.83956516    -0.75900
C374        C  0.45193963  0.34709373  0.86652941     0.84900
N375        N  0.48854995  0.33647476  0.86172807    -0.75800
C376        C  0.49965722  0.31724637  0.83028855     0.84900
N377        N  0.47330589  0.30822160  0.80329311    -0.77600
N378        N  0.52512633  0.53799550  0.95836578    -0.34400
N379        N  0.44325394  0.55173681  0.95194912    -0.55000
N380        N  0.42961922  0.47109996  0.95190732    -0.34400
N381        N  0.50998873  0.45693160  0.96014398    -0.55000
C382        C  0.52518427  0.57520521  0.94965374     0.29200
C383        C  0.56068921  0.52471670  0.95216050     0.29200
C384        C  0.39348222  0.48317229  0.94992785     0.29200
C385        C  0.42906978  0.43310394  0.95402489     0.29200
C386        C  0.45524440  0.58780689  0.95195568     0.37800
C387        C  0.40517294  0.55259700  0.95014982     0.37800
C388        C  0.54795407  0.45613094  0.96254492     0.37800
C389        C  0.49800996  0.42089121  0.96191099     0.37800
C390        C  0.56190594  0.58649750  0.94209754    -0.19700
C391        C  0.58398353  0.55481218  0.94263874    -0.19700
C392        C  0.36945800  0.45224144  0.95178889    -0.19700
C393        C  0.39197007  0.42068216  0.95448760    -0.19700
C394        C  0.42427586  0.61192818  0.95155784    -0.20800
C395        C  0.39260114  0.58960352  0.95072806    -0.20800
C396        C  0.56025269  0.41935212  0.96724181    -0.20800
C397        C  0.52865788  0.39701186  0.96699933    -0.20800
C398        C  0.49296891  0.59875913  0.94435984    -0.16100
C399        C  0.57170462  0.48597267  0.95124012    -0.16100
C400        C  0.46112330  0.40912947  0.95238181    -0.16100
C401        C  0.38205274  0.52079118  0.94287271    -0.16100
H402        H  0.57168074  0.61453681  0.93496208     0.16800
H403        H  0.61368505  0.55493989  0.93590052     0.16800
H404        H  0.33891225  0.45208309  0.95111785     0.16800
H405        H  0.38225512  0.39176845  0.95587342     0.16800
H406        H  0.42433328  0.64241472  0.95040741     0.15100
H407        H  0.36368427  0.59941975  0.94889490     0.15100
H408        H  0.58921748  0.40956464  0.96843538     0.15100
H409        H  0.52870293  0.36658095  0.96895404     0.15100
H410        H  0.50164307  0.52225792  0.96550842     0.28300
H411        H  0.45336927  0.48749786  0.94847488     0.28300
N412        N  0.56524957  0.43936709  0.06979156    -0.34400
N413        N  0.48389034  0.43309045  0.05981280    -0.55000
N414        N  0.47700829  0.51288847  0.04145818    -0.34400
N415        N  0.55714855  0.52017388  0.05916570    -0.55000
C416        C  0.55786084  0.40775324  0.09024858     0.29200
C417        C  0.59928550  0.45259295  0.08105368     0.29200
C418        C  0.44014957  0.50330891  0.04110247     0.29200
C419        C  0.47845927  0.55050338  0.04789184     0.29200
C420        C  0.49231132  0.39691535  0.06803213     0.37800
C421        C  0.44809000  0.43341144  0.04697731     0.37800
C422        C  0.59496121  0.51757300  0.05522716     0.37800
C423        C  0.54772221  0.55615550  0.05116906     0.37800
C424        C  0.58820810  0.40022545  0.11369660    -0.19700
C425        C  0.61434298  0.42811091  0.10766333    -0.19700
C426        C  0.41807525  0.53570588  0.04328932    -0.19700
C427        C  0.44230484  0.56547722  0.04732302    -0.19700
C428        C  0.46190702  0.37383012  0.05965697    -0.20800
C429        C  0.43372495  0.39705327  0.04663533    -0.20800
C430        C  0.60956809  0.55206045  0.04366827    -0.20800
C431        C  0.57965318  0.57685522  0.04235046    -0.20800
C432        C  0.52420316  0.38599124  0.08920965    -0.16100
C433        C  0.61633095  0.48707656  0.06951667    -0.16100
C434        C  0.51135753  0.57117397  0.05685218    -0.16100
C435        C  0.42566321  0.46628828  0.04434886    -0.16100
H436        H  0.59120744  0.37756722  0.13390730     0.16800
H437        H  0.64069805  0.43058104  0.12267862     0.16800
H438        H  0.38754026  0.53760938  0.04365656     0.16800
H439        H  0.43410696  0.59473083  0.05063143     0.16800
H440        H  0.45958483  0.34377783  0.06452668     0.15100
H441        H  0.40520813  0.38860246  0.03969951     0.15100
H442        H  0.63898677  0.55920057  0.03913355     0.15100
H443        H  0.58116856  0.60661170  0.03572366     0.15100
H444        H  0.54826661  0.45153593  0.04927001     0.28300
H445        H  0.49960669  0.49440611  0.04030251     0.28300
C446        C  0.17277227  0.52858031  0.68328171     0.82400
N447        N  0.19335980  0.49745163  0.69359788    -0.75900
C448        C  0.18242370  0.46220289  0.68182240     0.84900
N449        N  0.15123475  0.45855086  0.65985729    -0.75800
C450        C  0.13031639  0.48917863  0.65028451     0.84900
N451        N  0.14137699  0.52399200  0.66194198    -0.77600
C452        C  0.29851241  0.49717489  0.81135494     0.82400
N453        N  0.29208395  0.52612004  0.78660097    -0.75900
C454        C  0.30330517  0.56186190  0.79589169     0.84900
N455        N  0.32070403  0.56820955  0.82925947    -0.75800
C456        C  0.32629814  0.53982973  0.85406690     0.84900
N457        N  0.31539361  0.50431921  0.84494765    -0.77600
C458        C  0.51631461  0.82850237  0.69676104     0.82400
N459        N  0.48529493  0.80595267  0.70147101    -0.75900
C460        C  0.45073575  0.81824450  0.68938563     0.84900
N461        N  0.44768004  0.85252865  0.67249936    -0.75800
C462        C  0.47848756  0.87501277  0.66834156     0.84900
N463        N  0.51250744  0.86276826  0.68048530    -0.77600
C464        C  0.54209977  0.69199946  0.80693205     0.82400
N465        N  0.54402583  0.66740982  0.83619874    -0.75900
C466        C  0.51269939  0.65885914  0.85670304     0.84900
N467        N  0.47893065  0.67396915  0.84716285    -0.75800
C468        C  0.47633181  0.69788367  0.81743397     0.84900
N469        N  0.50805135  0.70731212  0.79729568    -0.77600
C470        C  0.80408895  0.68089562  0.45989332     0.82400
N471        N  0.79522011  0.69378311  0.49534263    -0.75900
C472        C  0.81811976  0.68507297  0.52515265     0.84900
N473        N  0.84978320  0.66408710  0.51924063    -0.75800
C474        C  0.85864329  0.65141418  0.48403103     0.84900
N475        N  0.83547129  0.65945759  0.45472184    -0.77600
C476        C  0.68606341  0.80721256  0.55490540     0.82400
N477        N  0.69599968  0.79400486  0.51986666    -0.75900
C478        C  0.68775623  0.81493666  0.48861310     0.84900
N479        N  0.66988981  0.84840393  0.49255947    -0.75800
C480        C  0.65995840  0.86176082  0.52714488     0.84900
N481        N  0.66803302  0.84100150  0.55831151    -0.77600
C482        C  0.48470466  0.81409998  0.30763905     0.82400
N483        N  0.49062009  0.84728670  0.32598030    -0.75900
C484        C  0.52543371  0.85605022  0.33942431     0.84900
N485        N  0.55425226  0.83117097  0.33484788    -0.75800
C486        C  0.54897177  0.79822553  0.31600762     0.84900
N487        N  0.51406381  0.78955901  0.30231819    -0.77600
C488        C  0.45529418  0.67383829  0.18711065     0.82400
N489        N  0.45349257  0.64917954  0.15768349    -0.75900
C490        C  0.48525236  0.63904501  0.13830485     0.84900
N491        N  0.51917376  0.65289124  0.14908909    -0.75800
C492        C  0.52168111  0.67688918  0.17883501     0.84900
N493        N  0.48964241  0.68771212  0.19789094    -0.77600
N494        N  0.45248795  0.95875981  0.43914393    -0.34400
N495        N  0.43910876  0.94825313  0.51989678    -0.55000
N496        N  0.51974789  0.93815932  0.53606422    -0.34400
N497        N  0.53211242  0.94484048  0.45486291    -0.55000
C498        C  0.41458304  0.95408888  0.43907028     0.29200
C499        C  0.46498574  0.95154447  0.40360508     0.29200
C500        C  0.50102291  0.91962515  0.56391497     0.29200
C501        C  0.55185408  0.91837472  0.52888222     0.29200
C502        C  0.40444395  0.95882674  0.50838124     0.37800
C503        C  0.43830745  0.94852554  0.55800868     0.37800
C504        C  0.53328375  0.95379816  0.41781776     0.37800
C505        C  0.56801250  0.94580066  0.46733526     0.37800
C506        C  0.40248253  0.94822545  0.40232622    -0.19700
C507        C  0.43428286  0.94586796  0.38003913    -0.19700
C508        C  0.52116723  0.88768693  0.57411152    -0.19700
C509        C  0.55298799  0.88675870  0.55196095    -0.19700
C510        C  0.38155698  0.96635882  0.53951099    -0.20800
C511        C  0.40315493  0.96005864  0.57105508    -0.20800
C512        C  0.57011091  0.96083833  0.40653906    -0.20800
C513        C  0.59216752  0.95639252  0.43811912    -0.20800
C514        C  0.39112499  0.95149631  0.47167771    -0.16100
C515        C  0.50326417  0.94650531  0.39290354    -0.16100
C516        C  0.57917509  0.92765299  0.50090923    -0.16100
C517        C  0.46580831  0.93041893  0.57989702    -0.16100
H518        H  0.37374610  0.94418803  0.39283689     0.16800
H519        H  0.43437041  0.93984985  0.35005819     0.16800
H520        H  0.51293157  0.86592754  0.59390902     0.16800
H521        H  0.57315161  0.86383790  0.55162372     0.16800
H522        H  0.35181954  0.97353638  0.53947817     0.15100
H523        H  0.39336779  0.96116193  0.60011909     0.15100
H524        H  0.58010214  0.96631111  0.37806353     0.15100
H525        H  0.62272456  0.95765099  0.43873691     0.15100
H526        H  0.46906798  0.96399399  0.46260829     0.28300
H527        H  0.51145033  0.96333964  0.52323150     0.28300
N528        N  0.43368872  0.06421892  0.57397846    -0.34400
N529        N  0.51401404  0.05488862  0.56195753    -0.55000
N530        N  0.50563030  0.04445031  0.47974895    -0.34400
N531        N  0.42609146  0.05953273  0.49123745    -0.55000
C532        C  0.44752264  0.07524904  0.60787678     0.29200
C533        C  0.40088909  0.08331549  0.56878682     0.29200
C534        C  0.54235134  0.05516269  0.48188667     0.29200
C535        C  0.49448366  0.05023585  0.44357815     0.29200
C536        C  0.51312302  0.05145585  0.59992612     0.37800
C537        C  0.55000707  0.04841500  0.55100192     0.37800
C538        C  0.38976100  0.06363844  0.50255299     0.37800
C539        C  0.42508127  0.04739856  0.45501031     0.37800
C540        C  0.42205382  0.09981068  0.62515658    -0.19700
C541        C  0.39294330  0.10509442  0.60047429    -0.19700
C542        C  0.55553724  0.06454905  0.44627411    -0.19700
C543        C  0.52543202  0.06255147  0.42248856    -0.19700
C544        C  0.54863301  0.04171916  0.61313779    -0.20800
C545        C  0.57220212  0.04053456  0.58211157    -0.20800
C546        C  0.36547912  0.05376226  0.47370361    -0.20800
C547        C  0.38780836  0.04329411  0.44360241    -0.20800
C548        C  0.48355446  0.06600654  0.62263065    -0.16100
C549        C  0.37864990  0.08288165  0.53572700    -0.16100
C550        C  0.45664740  0.04726807  0.43018926    -0.16100
C551        C  0.56395550  0.05885291  0.51530341    -0.16100
H552        H  0.42462413  0.11408785  0.65204692     0.16800
H553        H  0.36928168  0.12389829  0.60522956     0.16800
H554        H  0.58368700  0.07360187  0.43830982     0.16800
H555        H  0.52693019  0.07180947  0.39363310     0.16800
H556        H  0.55725587  0.03903724  0.64233266     0.15100
H557        H  0.60248716  0.03626939  0.58258162     0.15100
H558        H  0.33493666  0.05562834  0.47389760     0.15100
H559        H  0.37779953  0.03537072  0.41583441     0.15100
H560        H  0.44630604  0.04529210  0.55522306     0.28300
H561        H  0.48870773  0.03499642  0.50192456     0.28300
C562        C  0.19632922  0.70336726  0.54058071     0.82400
N563        N  0.15846657  0.69730787  0.54400454    -0.75900
C564        C  0.13684691  0.69281996  0.51278315     0.84900
N565        N  0.15347564  0.69392596  0.47830018    -0.75800
C566        C  0.19091301  0.69930164  0.47421803     0.84900
N567        N  0.21288934  0.70425304  0.50545436    -0.77600
C568        C  0.30858878  0.80330943  0.44264737     0.82400
N569        N  0.29795899  0.79630260  0.47943413    -0.75900
C570        C  0.30490111  0.82289682  0.50692549     0.84900
N571        N  0.32188006  0.85582941  0.49729582    -0.75800
C572        C  0.33224765  0.86265264  0.46098315     0.84900
N573        N  0.32607805  0.83618026  0.43412622    -0.77600
C574        C  0.28737530  0.21701545  0.53994333     0.82400
N575        N  0.30789683  0.18453997  0.53931254    -0.75900
C576        C  0.31874044  0.16822494  0.50613417     0.84900
N577        N  0.30927246  0.18451854  0.47288843    -0.75800
C578        C  0.28824035  0.21644717  0.47159735     0.84900
N579        N  0.27716308  0.23320297  0.50558767    -0.77600
C580        C  0.13302251  0.31486688  0.47287100     0.82400
N581        N  0.10354107  0.33941803  0.47517413    -0.75900
C582        C  0.09300955  0.35329191  0.50956994     0.84900
N583        N  0.11253659  0.34342943  0.54069169    -0.75800
C584        C  0.14167097  0.31907194  0.53785288     0.84900
N585        N  0.15199760  0.30469975  0.50413893    -0.77600
C586        C  0.81044201  0.51031400  0.32209994     0.82400
N587        N  0.84314286  0.50210898  0.34001359    -0.75900
C588        C  0.85072009  0.46651796  0.35168481     0.84900
N589        N  0.82496554  0.43878845  0.34571316    -0.75800
C590        C  0.79217520  0.44604840  0.32723619     0.84900
N591        N  0.78475844  0.48213354  0.31533640    -0.77600
C592        C  0.69455704  0.47366759  0.19292767     0.82400
N593        N  0.68507218  0.48021839  0.15655745    -0.75900
C594        C  0.68185487  0.51584402  0.14323816     0.84900
N595        N  0.68815557  0.54528603  0.16677800    -0.75800
C596        C  0.69844704  0.53945737  0.20317707     0.84900
N597        N  0.70134325  0.50340074  0.21668206    -0.77600
N598        N  0.93059669  0.45194962  0.46978428    -0.34400
N599        N  0.95199430  0.53045796  0.46126939    -0.55000
N600        N  0.94055312  0.53738399  0.54327646    -0.34400
N601        N  0.92704021  0.45655647  0.55218707    -0.55000
C602        C  0.94238715  0.45347565  0.43353161     0.29200
C603        C  0.93047534  0.41534435  0.48010376     0.29200
C604        C  0.95202551  0.57236480  0.53396429     0.29200
C605        C  0.94252510  0.53409974  0.58128808     0.29200
C606        C  0.94688494  0.52210171  0.42426147     0.37800
C607        C  0.95098872  0.56849549  0.46396370     0.37800
C608        C  0.90591783  0.42583860  0.54442383     0.37800
C609        C  0.91272584  0.47133325  0.58442444     0.37800
C610        C  0.95034625  0.41746285  0.42045223    -0.19700
C611        C  0.94312673  0.39324544  0.45011156    -0.19700
C612        C  0.96210080  0.59173050  0.56647157    -0.19700
C613        C  0.95669301  0.56725855  0.59643367    -0.19700
C614        C  0.94556472  0.55501409  0.40313697    -0.20800
C615        C  0.94868443  0.58434594  0.42826489    -0.20800
C616        C  0.87742293  0.42196804  0.57135778    -0.20800
C617        C  0.88237301  0.45016286  0.59715089    -0.20800
C618        C  0.93854123  0.48551984  0.41052287    -0.16100
C619        C  0.91258693  0.40178308  0.51309318    -0.16100
C620        C  0.92591193  0.50430711  0.60211463    -0.16100
C621        C  0.94601401  0.58878849  0.49827055    -0.16100
H622        H  0.95852997  0.40950498  0.39197156     0.16800
H623        H  0.94472098  0.36276558  0.44903738     0.16800
H624        H  0.97086172  0.62090646  0.56846871     0.16800
H625        H  0.96024303  0.57397380  0.62607441     0.16800
H626        H  0.94161510  0.55800522  0.37300164     0.15100
H627        H  0.94702772  0.61404442  0.42135922     0.15100
H628        H  0.85413569  0.40233401  0.57197978     0.15100
H629        H  0.86424156  0.45562662  0.62130912     0.15100
H630        H  0.91840068  0.47406289  0.48480062     0.28300
H631        H  0.92751371  0.51871161  0.52502891     0.28300
N632        N  0.06032944  0.56502699  0.44979085    -0.34400
N633        N  0.03864373  0.48687919  0.44392028    -0.55000
N634        N  0.03536063  0.48645713  0.52659683    -0.34400
N635        N  0.05018561  0.56729302  0.53331659    -0.55000
C636        C  0.05761093  0.55980435  0.41212147     0.29200
C637        C  0.05571553  0.60217820  0.45675064     0.29200
C638        C  0.02043116  0.45239476  0.51886596     0.29200
C639        C  0.03366226  0.49151804  0.56444000     0.29200
C640        C  0.05355426  0.49112734  0.40881649     0.37800
C641        C  0.03479388  0.44939110  0.44940154     0.37800
C642        C  0.07124415  0.59789924  0.52428941     0.37800
C643        C  0.06524986  0.55329231  0.56551081     0.37800
C644        C  0.05077018  0.59383941  0.39445896    -0.19700
C645        C  0.04860501  0.62063208  0.42278446    -0.19700
C646        C  0.00762445  0.43618132  0.55237520    -0.19700
C647        C  0.01618685  0.46090153  0.58124291    -0.19700
C648        C  0.05640465  0.45658258  0.39082615    -0.20800
C649        C  0.04480573  0.43008853  0.41653309    -0.20800
C650        C  0.09992938  0.60251366  0.55052115    -0.20800
C651        C  0.09550181  0.57500553  0.57700366    -0.20800
C652        C  0.06660041  0.52576624  0.39389940    -0.16100
C653        C  0.06625667  0.61976575  0.49109828    -0.16100
C654        C  0.05376945  0.51982410  0.58365048    -0.16100
C655        C  0.02686218  0.43216283  0.48472997    -0.16100
H656        H  0.04858878  0.59889849  0.36436830     0.16800
H657        H  0.04493770  0.65064176  0.41851170     0.16800
H658        H  0.99611486  0.40810261  0.55586736     0.16800
H659        H  0.01224044  0.45591340  0.61121084     0.16800
H660        H  0.06668776  0.45093994  0.36246625     0.15100
H661        H  0.04497889  0.39998786  0.41159056     0.15100
H662        H  0.12380915  0.62138751  0.54963652     0.15100
H663        H  0.11431527  0.57000482  0.60047116     0.15100
H664        H  0.06989956  0.54498548  0.46884112     0.28300
H665        H  0.05096251  0.50287383  0.50810361     0.28300
C666        C  0.78570651  0.31310489  0.56887306     0.82400
N667        N  0.76886230  0.30760315  0.53476981    -0.75900
C668        C  0.78960855  0.31195025  0.50254117     0.84900
N669        N  0.82644754  0.32131060  0.50448926    -0.75800
C670        C  0.84339723  0.32670215  0.53819193     0.84900
N671        N  0.82285684  0.32273061  0.57048166    -0.77600
C672        C  0.65931232  0.19754039  0.47397718     0.67200
N673        N  0.63490414  0.16823410  0.47120903    -0.75900
C674        C  0.62637194  0.14675679  0.50178791     0.84900
N675        N  0.64149174  0.15530750  0.53586441    -0.75800
C676        C  0.66533332  0.18505421  0.53949071     0.84900
N677        N  0.67461548  0.20619953  0.50837088    -0.77600
C678        C  0.81512001  0.68934452  0.05516944     0.82400
N679        N  0.80259041  0.69941854  0.02010993    -0.75900
C680        C  0.81018502  0.67676255  0.98961128     0.84900
N681        N  0.82972764  0.64411969  0.99455001    -0.75800
C682        C  0.84204085  0.63399458  0.02943797     0.84900
N683        N  0.83514870  0.65698317  0.05939511    -0.77600
C684        C  0.69615283  0.81613649  0.96036121     0.82400
N685        N  0.70511494  0.80239847  0.99529313    -0.75900
C686        C  0.68176458  0.80961917  0.02547445     0.84900
N687        N  0.64954768  0.82977184  0.02031890    -0.75800
C688        C  0.64056684  0.84319507  0.98555924     0.84900
N689        N  0.66421414  0.83677904  0.95595048    -0.77600
C690        C  0.01603188  0.69086099  0.80979342     0.82400
N691        N  0.98559214  0.71321876  0.80174764    -0.75900
C692        C  0.95049974  0.70301910  0.81441832     0.84900
N693        N  0.94626940  0.67107738  0.83490445    -0.75800
C694        C  0.97623608  0.64854461  0.84209226     0.84900
N695        N  0.01111541  0.65857029  0.82974732    -0.77600
C696        C  0.04399131  0.82271046  0.68878587     0.82400
N697        N  0.00936987  0.80858965  0.69859337    -0.75900
C698        C  0.97877452  0.81569210  0.67627807     0.84900
N699        N  0.98313792  0.83647185  0.64427788    -0.75800
C700        C  0.01757540  0.85045683  0.63442210     0.84900
N701        N  0.04765627  0.84395692  0.65707782    -0.77600
C702        C  0.67638717  0.98555761  0.81617595     0.82400
N703        N  0.64091600  0.98900608  0.83018928    -0.75900
C704        C  0.62632320  0.02332483  0.83877259     0.84900
N705        N  0.64776732  0.05453740  0.83360134    -0.75800
C706        C  0.68358082  0.05157233  0.81984376     0.84900
N707        N  0.69814247  0.01692316  0.81099538    -0.77600
C708        C  0.79476751  0.02330520  0.69262562     0.82400
N709        N  0.78849570  0.99303665  0.71599086    -0.75900
C710        C  0.80136059  0.95803641  0.70553059     0.84900
N711        N  0.82034098  0.95383465  0.67247920    -0.75800
C712        C  0.82572925  0.98340262  0.64900533     0.84900
N713        N  0.81325108  0.01816072  0.65920130    -0.77600
C714        C  0.27234380  0.20403330  0.97161139     0.82400
N715        N  0.30249559  0.18031492  0.97171630    -0.75900
C716        C  0.31737219  0.16726813  0.00451090     0.84900
N717        N  0.30140381  0.17736411  0.03803837    -0.75800
C718        C  0.27071652  0.20046298  0.03933640     0.84900
N719        N  0.25598368  0.21407497  0.00583441    -0.77600
C720        C  0.17070334  0.36130086  0.04230388     0.82400
N721        N  0.16338774  0.39849469  0.04802875    -0.75900
C722        C  0.16067826  0.42229977  0.01811894     0.84900
N723        N  0.16686185  0.40884873  0.98249247    -0.75800
C724        C  0.17366135  0.37143990  0.97694163     0.84900
N725        N  0.17605893  0.34794075  0.00687540    -0.77600
C726        C  0.68387012  0.01021641  0.20513718     0.82400
N727        N  0.65261878  0.00534319  0.18377788    -0.75900
C728        C  0.64433731  0.97102127  0.16924224     0.84900
N729        N  0.66760481  0.94143161  0.17580138    -0.75800
C730        C  0.69857832  0.94555725  0.19773679     0.84900
N731        N  0.70694127  0.98017065  0.21259298    -0.77600
C732        C  0.80640260  0.97506333  0.33447694     0.82400
N733        N  0.82906105  0.97669261  0.36498019    -0.75900
C734        C  0.84066794  0.01014261  0.37921816     0.84900
N735        N  0.82948512  0.04272237  0.36234786    -0.75800
C736        C  0.80662428  0.04184036  0.33150844     0.84900
N737        N  0.79497769  0.00775473  0.31742179    -0.77600
N738        N  0.41386635  0.04621706  0.98408893    -0.34400
N739        N  0.42937705  0.04827703  0.06452981    -0.55000
N740        N  0.45324448  0.96966350  0.05991244    -0.34400
N741        N  0.43959054  0.96942412  0.97858088    -0.55000
C742        C  0.40988766  0.08337625  0.99182712     0.29200
C743        C  0.41908222  0.04299333  0.94619288     0.29200
C744        C  0.45449614  0.97493106  0.09781763     0.29200
C745        C  0.44989748  0.93204741  0.05378137     0.29200
C746        C  0.41477362  0.08344598  0.06141725     0.37800
C747        C  0.44082709  0.04417652  0.10068367     0.37800
C748        C  0.43345289  0.97470497  0.94141675     0.37800
C749        C  0.44623660  0.93235188  0.98321029     0.37800
C750        C  0.41371127  0.10403609  0.95877979    -0.19700
C751        C  0.41895362  0.07855608  0.92990886    -0.19700
C752        C  0.45426818  0.94020614  0.11585751    -0.19700
C753        C  0.45084879  0.91321796  0.08811881    -0.19700
C754        C  0.41725959  0.10201110  0.09585923    -0.20800
C755        C  0.43448938  0.07744752  0.12045280    -0.20800
C756        C  0.43854594  0.94119777  0.92182599    -0.20800
C757        C  0.44592646  0.91418182  0.94840504    -0.20800
C758        C  0.40022367  0.09894371  0.02753341    -0.16100
C759        C  0.42035624  0.00876959  0.92563915    -0.16100
C760        C  0.44411087  0.91395874  0.01838348    -0.16100
C761        C  0.45397018  0.01005539  0.11694656    -0.16100
H762        H  0.41215076  0.13438571  0.95575896     0.16800
H763        H  0.42237204  0.08564582  0.90034178     0.16800
H764        H  0.45482989  0.93488801  0.14598875     0.16800
H765        H  0.44891394  0.88308980  0.09268376     0.16800
H766        H  0.40878372  0.13056459  0.10259432     0.15100
H767        H  0.44058263  0.08316536  0.14986324     0.15100
H768        H  0.43594597  0.93639951  0.89171695     0.15100
H769        H  0.44967423  0.88441400  0.94271269     0.15100
H770        H  0.40959750  0.02437089  0.00321520     0.28300
H771        H  0.45405383  0.99077021  0.03969158     0.28300
N772        N  0.55193904  0.96158603  0.97414743    -0.34400
N773        N  0.54717384  0.04459502  0.97864011    -0.55000
N774        N  0.54614514  0.03375773  0.06157507    -0.34400
N775        N  0.54373161  0.95162706  0.05457697    -0.55000
C776        C  0.54748888  0.97168883  0.93772101     0.29200
C777        C  0.54541093  0.92412755  0.97635298     0.29200
C778        C  0.54388840  0.07174179  0.05990108     0.29200
C779        C  0.54550051  0.02392951  0.09846716     0.29200
C780        C  0.56279015  0.03970818  0.94374500     0.37800
C781        C  0.55856158  0.07902637  0.99082850     0.37800
C782        C  0.54805995  0.91488162  0.04542082     0.37800
C783        C  0.54787403  0.95387828  0.09237205     0.37800
C784        C  0.53749427  0.94027046  0.91652159    -0.19700
C785        C  0.53659345  0.91009325  0.94096768    -0.19700
C786        C  0.53919444  0.08613236  0.09616945    -0.19700
C787        C  0.54129227  0.05607171  0.12055017    -0.19700
C788        C  0.58338608  0.07153484  0.93381508    -0.20800
C789        C  0.57998636  0.09648193  0.96294507    -0.20800
C790        C  0.55228427  0.89337735  0.07783987    -0.20800
C791        C  0.55161631  0.91809019  0.10763441    -0.20800
C792        C  0.56083445  0.00579552  0.92227160    -0.16100
C793        C  0.55326785  0.90162772  0.00814807    -0.16100
C794        C  0.55446347  0.98772496  0.11249513    -0.16100
C795        C  0.55411139  0.09371593  0.02799574    -0.16100
H796        H  0.53389109  0.93889203  0.88616108     0.16800
H797        H  0.53166989  0.88090530  0.93343080     0.16800
H798        H  0.53785811  0.11554063  0.10440958     0.16800
H799        H  0.54111576  0.05800968  0.15109242     0.16800
H800        H  0.60152483  0.07635286  0.90972139     0.15100
H801        H  0.59452775  0.12327055  0.96428691     0.15100
H802        H  0.55660343  0.86327266  0.08006861     0.15100
H803        H  0.55575359  0.91083650  0.13705126     0.15100
H804        H  0.56399455  0.97802509  0.99478207     0.28300
H805        H  0.55277189  0.01629326  0.03955118     0.28300
C806        C  0.69224124  0.18437669  0.07007540     0.82400
N807        N  0.66031260  0.16447542  0.07701924    -0.75900
C808        C  0.63497386  0.15799656  0.04932470     0.84900
N809        N  0.64211194  0.17055901  0.01377173    -0.75800
C810        C  0.67416170  0.19000563  0.00578096     0.84900
N811        N  0.69947723  0.19731010  0.03416150    -0.77600
C812        C  0.80076425  0.30083163  0.97446450     0.82400
N813        N  0.82006405  0.33355399  0.97024058    -0.75900
C814        C  0.82909438  0.35478695  0.00068185     0.84900
N815        N  0.81961032  0.34270613  0.03581025    -0.75800
C816        C  0.80087728  0.30980855  0.04075325     0.84900
N817        N  0.79103736  0.28864433  0.00993621    -0.77600
C818        C  0.34609181  0.96878394  0.18047383     0.82400
N819        N  0.38421825  0.97253724  0.17992882    -0.75900
C820        C  0.40002375  0.00727909  0.18196202     0.84900
N821        N  0.37759882  0.03808446  0.18595978    -0.75800
C822        C  0.33945004  0.03416119  0.18626702     0.84900
N823        N  0.32373012  0.99952024  0.18413878    -0.77600
C824        C  0.19554327  0.02940312  0.28684602     0.82400
N825        N  0.20550181  0.99596949  0.26853801    -0.75900
C826        C  0.19910037  0.96131081  0.28605955     0.84900
N827        N  0.18294157  0.96110759  0.32115588    -0.75800
C828        C  0.17316393  0.99380350  0.33892072     0.84900
N829        N  0.17924854  0.02723692  0.32149645    -0.77600
C830        C  0.98386657  0.67730939  0.19697267     0.82400
N831        N  0.98902624  0.64300928  0.18101731    -0.75900
C832        C  0.02386260  0.63113347  0.17030327     0.84900
N833        N  0.05400024  0.65423509  0.17534851    -0.75800
C834        C  0.04943822  0.68899446  0.19112866     0.84900
N835        N  0.01413537  0.70069003  0.20211630    -0.77600
C836        C  0.95455553  0.79518062  0.30825599     0.82400
N837        N  0.99044073  0.78883308  0.29489897    -0.75900
C838        C  0.02055333  0.79456346  0.31836643     0.84900
N839        N  0.01452013  0.80630510  0.35434980    -0.75800
C840        C  0.97903026  0.81260391  0.36750094     0.84900
N841        N  0.94931937  0.80749428  0.34420459    -0.77600
N842        N  0.95372000  0.42882311  0.07106699    -0.34400
N843        N  0.03628731  0.44008577  0.06964959    -0.55000
N844        N  0.03421277  0.45941799  0.99109175    -0.34400
N845        N  0.95370044  0.44433178  0.99078296    -0.55000
C846        C  0.96609977  0.40535107  0.09867844     0.29200
C847        C  0.92048478  0.41461042  0.05859185     0.29200
C848        C  0.07168024  0.46277107  0.99715239     0.29200
C849        C  0.02935530  0.45335708  0.95369241     0.29200
C850        C  0.03014730  0.43213776  0.10650125     0.37800
C851        C  0.07009178  0.45774829  0.06733468     0.37800
C852        C  0.91619341  0.44603642  0.99684730     0.37800
C853        C  0.95957372  0.45240709  0.95405875     0.37800
C854        C  0.94050508  0.37596837  0.10317884    -0.19700
C855        C  0.91148715  0.38228826  0.07868350    -0.19700
C856        C  0.09076367  0.46145279  0.96275623    -0.19700
C857        C  0.06409061  0.45486671  0.93541025    -0.19700
C858        C  0.06040047  0.44439998  0.12791131    -0.20800
C859        C  0.08554584  0.46110067  0.10312441    -0.20800
C860        C  0.89794425  0.45664929  0.96391047    -0.20800
C861        C  0.92548182  0.45946838  0.93639559    -0.20800
C862        C  0.99983792  0.40986848  0.11984572    -0.16100
C863        C  0.89884903  0.42853587  0.02813950    -0.16100
C864        C  0.99438505  0.44647049  0.93569121    -0.16100
C865        C  0.08871037  0.46706080  0.03297664    -0.16100
H866        H  0.94275609  0.35132125  0.12094967     0.16800
H867        H  0.88759010  0.36372718  0.07466062     0.16800
H868        H  0.12072333  0.46464519  0.95761983     0.16800
H869        H  0.06955010  0.45235952  0.90534376     0.16800
H870        H  0.06414346  0.44111030  0.15809176     0.15100
H871        H  0.11271755  0.47296021  0.11040994     0.15100
H872        H  0.86778882  0.45883486  0.95942193     0.15100
H873        H  0.92089480  0.46540704  0.90676676     0.15100
H874        H  0.96672155  0.45351099  0.06163768     0.28300
H875        H  0.01327304  0.46132252  0.01159242     0.28300
N876        N  0.95312924  0.54343923  0.95543068    -0.34400
N877        N  0.03484574  0.55402860  0.94808774    -0.55000
N878        N  0.04487035  0.55748267  0.03020939    -0.34400
N879        N  0.96307147  0.55032296  0.03666683    -0.55000
C880        C  0.95554374  0.55188579  0.91822358     0.29200
C881        C  0.91676055  0.54931402  0.96615663     0.29200
C882        C  0.07604210  0.57474804  0.01611129     0.29200
C883        C  0.03679377  0.57437213  0.06382437     0.29200
C884        C  0.02551806  0.54872024  0.91153522     0.37800
C885        C  0.07291846  0.55407775  0.94946650     0.37800
C886        C  0.92620626  0.54090427  0.03497469     0.37800
C887        C  0.97317863  0.54766962  0.07324002     0.37800
C888        C  0.91971323  0.55921133  0.90437418    -0.19700
C889        C  0.89535653  0.55826528  0.93464111    -0.19700
C890        C  0.08818319  0.60216281  0.04116055    -0.19700
C891        C  0.06310118  0.60263240  0.07055112    -0.19700
C892        C  0.05794808  0.54493843  0.88958914    -0.20800
C893        C  0.08804817  0.54790009  0.91373997    -0.20800
C894        C  0.91275711  0.53165421  0.07062068    -0.20800
C895        C  0.94265408  0.53565368  0.09492601    -0.20800
C896        C  0.98944286  0.55694437  0.89717685    -0.16100
C897        C  0.90312211  0.54972976  0.00389584    -0.16100
C898        C  0.00551156  0.56564553  0.08765401    -0.16100
C899        C  0.09324167  0.56797347  0.98058498    -0.16100
H900        H  0.91213791  0.56636661  0.87564911     0.16800
H901        H  0.86547847  0.56441713  0.93324262     0.16800
H902        H  0.11138919  0.62168324  0.03773969     0.16800
H903        H  0.06366055  0.62351042  0.09275935     0.16800
H904        H  0.05975364  0.54233341  0.85912680     0.15100
H905        H  0.11759319  0.54832522  0.90559072     0.15100
H906        H  0.88383714  0.52531123  0.07849609     0.15100
H907        H  0.94132246  0.53312424  0.12542081     0.15100
H908        H  0.97544008  0.53637548  0.97288437     0.28300
H909        H  0.03016336  0.53531939  0.01768008     0.28300
C910        C  0.30369120  0.81849109  0.04270634     0.82400
N911        N  0.33479625  0.83873229  0.05125476    -0.75900
C912        C  0.35890933  0.85028839  0.02390400     0.84900
N913        N  0.35122714  0.84257405  0.98702049    -0.75800
C914        C  0.31966142  0.82273382  0.97774899     0.84900
N915        N  0.29584295  0.81037307  0.00578418    -0.77600
C916        C  0.18259846  0.70803273  0.94324197     0.82400
N917        N  0.19359708  0.71463105  0.97969814    -0.75900
C918        C  0.18507201  0.68885888  0.00725952     0.84900
N919        N  0.16645182  0.65676224  0.99793386    -0.75800
C920        C  0.15574375  0.65018968  0.96169314     0.84900
N921        N  0.16339703  0.67612635  0.93472875    -0.77600
C922        C  0.01855603  0.28518714  0.21795922     0.82400
N923        N  0.98546829  0.26708958  0.22859678    -0.75900
C924        C  0.95097324  0.28506416  0.22428599     0.84900
N925        N  0.95041436  0.32041035  0.20949180    -0.75800
C926        C  0.98275585  0.33814581  0.19881362     0.84900
N927        N  0.01642262  0.32031526  0.20294885    -0.77600
C928        C  0.01986683  0.18846261  0.36154848     0.82400
N929        N  0.98398778  0.19845486  0.35347280    -0.75900
C930        C  0.95565104  0.18873675  0.37741351     0.84900
N931        N  0.96314706  0.16866103  0.40921875    -0.75800
C932        C  0.99935070  0.15884055  0.41740352     0.84900
N933        N  0.02753681  0.16876079  0.39326838    -0.77600
C934        C  0.96832392  0.32565342  0.83210880     0.82400
N935        N  0.97414871  0.35549355  0.85546386    -0.75900
C936        C  0.00958700  0.36440232  0.86681481     0.84900
N937        N  0.03926456  0.34316141  0.85500791    -0.75800
C938        C  0.03416195  0.31368945  0.83114701     0.84900
N939        N  0.99847315  0.30471219  0.81956885    -0.77600
C940        C  0.93531856  0.19626103  0.70714490     0.82400
N941        N  0.97088329  0.20469412  0.71963180    -0.75900
C942        C  0.00106089  0.20146165  0.69544485     0.84900
N943        N  0.99543529  0.19048542  0.65931511    -0.75800
C944        C  0.96051513  0.18176402  0.64676317     0.84900
N945        N  0.93044304  0.18424306  0.67086201    -0.77600
N946        N  0.05957802  0.92482622  0.44357810    -0.34400
N947        N  0.06606563  0.00665817  0.44434108    -0.55000
N948        N  0.98418604  0.01742604  0.44925952    -0.34400
N949        N  0.97837098  0.93608244  0.44611657    -0.55000
C950        C  0.09324658  0.92959047  0.42557027     0.29200
C951        C  0.04633959  0.89038692  0.43373174     0.29200
C952        C  0.99978418  0.04906999  0.43509274     0.29200
C953        C  0.95282177  0.01066619  0.42868336     0.29200
C954        C  0.10268367  0.99628101  0.44363411     0.37800
C955        C  0.06513148  0.04348995  0.45403452     0.37800
C956        C  0.98016439  0.89925211  0.45530060     0.37800
C957        C  0.94190629  0.94661561  0.45031978     0.37800
C958        C  0.10206587  0.89720569  0.40525199    -0.19700
C959        C  0.07273537  0.87248160  0.41054558    -0.19700
C960        C  0.97896293  0.06202720  0.40470346    -0.19700
C961        C  0.94944370  0.03754926  0.40039815    -0.19700
C962        C  0.12533020  0.02657618  0.45354390    -0.20800
C963        C  0.10140721  0.05654279  0.46058520    -0.20800
C964        C  0.94478756  0.88664573  0.46686428    -0.20800
C965        C  0.92032963  0.91657220  0.46291431    -0.20800
C966        C  0.11538270  0.96289667  0.42580769    -0.16100
C967        C  0.01018019  0.87570324  0.44327723    -0.16100
C968        C  0.92781659  0.98045808  0.43529328    -0.16100
C969        C  0.03291024  0.06608596  0.44868209    -0.16100
H970        H  0.12650298  0.89189658  0.38748365     0.16800
H971        H  0.07072447  0.84512972  0.39714118     0.16800
H972        H  0.98539850  0.08557972  0.38633937     0.16800
H973        H  0.92908221  0.03874825  0.37777747     0.16800
H974        H  0.15591255  0.02749344  0.45331497     0.15100
H975        H  0.10994552  0.08519134  0.46677496     0.15100
H976        H  0.93689787  0.85803873  0.47408134     0.15100
H977        H  0.89000836  0.91589888  0.46713923     0.15100
H978        H  0.04584837  0.94411969  0.46115332     0.28300
H979        H  0.99384368  0.00219801  0.47257533     0.28300
N980        N  0.93779621  0.96027881  0.54372804    -0.34400
N981        N  0.92480749  0.04095875  0.55929913    -0.55000
N982        N  0.00387473  0.05741400  0.57314420    -0.34400
N983        N  0.01631119  0.97665262  0.56074958    -0.55000
C984        C  0.90032080  0.96045704  0.55140020     0.29200
C985        C  0.95064685  0.92524689  0.55207056     0.29200
C986        C  0.98470415  0.08400662  0.59308191     0.29200
C987        C  0.03543886  0.04909617  0.59300825     0.29200
C988        C  0.89074231  0.02946107  0.54699193     0.37800
C989        C  0.92318664  0.07888074  0.56201522     0.37800
C990        C  0.01831992  0.94086857  0.54780839     0.37800
C991        C  0.05190889  0.99016420  0.56049796     0.37800
C992        C  0.88862445  0.92437059  0.56095354    -0.19700
C993        C  0.92039086  0.90225454  0.56193973    -0.19700
C994        C  0.00426587  0.09252472  0.62585370    -0.19700
C995        C  0.03605246  0.07046793  0.62592210    -0.19700
C996        C  0.86749167  0.06043670  0.54128121    -0.20800
C997        C  0.88816187  0.09186143  0.55063400    -0.20800
C998        C  0.05529626  0.93158865  0.53880194    -0.20800
C999        C  0.07662051  0.96306923  0.54634922    -0.20800
C1000       C  0.87722529  0.99303027  0.55445519    -0.16100
C1001       C  0.98913717  0.91453636  0.55364838    -0.16100
C1002       C  0.06258448  0.02153375  0.58243828    -0.16100
C1003       C  0.94938280  0.09983196  0.58297439    -0.16100
H1004       H  0.86035684  0.91541828  0.56863661     0.16800
H1005       H  0.92080395  0.87297441  0.57038889     0.16800
H1006       H  0.99556556  0.11083052  0.64878238     0.16800
H1007       H  0.05574422  0.06893525  0.64908901     0.16800
H1008       H  0.83771859  0.06006497  0.53444906     0.15100
H1009       H  0.87763308  0.12052175  0.55206245     0.15100
H1010       H  0.06591627  0.90424673  0.53007442     0.15100
H1011       H  0.10713583  0.96477838  0.54472293     0.15100
H1012       H  0.95394559  0.98340003  0.53554652     0.28300
H1013       H  0.99611596  0.04587629  0.54712527     0.28300
C1014       C  0.30651237  0.03107999  0.81796704     0.82400
N1015       N  0.33612148  0.02467599  0.84111205    -0.75900
C1016       C  0.34555160  0.98910616  0.85131861     0.84900
N1017       N  0.32496495  0.95960769  0.83839473    -0.75800
C1018       C  0.29558676  0.96529506  0.81459125     0.84900
N1019       N  0.28607761  0.00128660  0.80432481    -0.77600
C1020       C  0.17980572  0.99547374  0.68633936     0.82400
N1021       N  0.15814070  0.00338052  0.65600970    -0.75900
C1022       C  0.14561980  0.03890721  0.64941583     0.84900
N1023       N  0.15481685  0.06697527  0.67376291    -0.75800
C1024       C  0.17637170  0.05982154  0.70460571     0.84900
N1025       N  0.18912081  0.02382588  0.71101837    -0.77600
O1026       O  0.17995193  0.24145458  0.36984268    -0.86000
C1027       C  0.29098885  0.12945710  0.22172120     1.14000
O1028       O  0.20359866  0.24772305  0.28682929    -1.33800
O1029       O  0.32790510  0.18968413  0.30478116    -0.87500
O1030       O  0.17710656  0.30065960  0.34775434    -0.88100
O1031       O  0.25110673  0.32919744  0.29691567    -0.77000
O1032       O  0.25254107  0.20797990  0.33995417    -0.99100
C1033       C  0.33658577  0.27896887  0.24044055     1.24100
O1034       O  0.23423947  0.27948312  0.22359841    -1.33900
Mn1035     Mn  0.21019592  0.22383865  0.23099888     1.82100
O1036       O  0.31700308  0.28855096  0.26905897    -0.76000
O1037       O  0.34786811  0.19160423  0.24445771    -0.85400
C1038       C  0.24575538  0.21699997  0.15274215     1.15200
C1039       C  0.35335733  0.18687359  0.27954380     1.09900
O1040       O  0.15236332  0.23260382  0.21466960    -0.77000
O1041       O  0.26595158  0.21633891  0.25386228    -1.30700
O1042       O  0.14996512  0.28754838  0.23927507    -0.96200
C1043       C  0.26454096  0.36660090  0.20280696     1.08600
Mn1044     Mn  0.30572961  0.21112271  0.20851785     1.48600
O1045       O  0.22884812  0.36335524  0.20407566    -0.85400
Mn1046     Mn  0.16261207  0.29175023  0.29259103     1.49600
O1047       O  0.14263488  0.19445485  0.31283684    -0.89300
C1048       C  0.26807276  0.23462588  0.35614237     1.21800
C1049       C  0.11598303  0.21843770  0.31274009     1.13900
Mn1050     Mn  0.25913250  0.27159648  0.27859111     1.81000
O1051       O  0.27222583  0.23224833  0.16884068    -0.94400
Mn1052     Mn  0.19844194  0.20355863  0.32759502     1.49300
C1053       C  0.17457257  0.27673435  0.37403403     1.10400
Mn1054     Mn  0.27765804  0.28523646  0.18197432     1.49900
C1055       C  0.20378203  0.30920050  0.13689760     1.13300
O1056       O  0.19591187  0.33318486  0.27340271    -1.00200
O1057       O  0.28890940  0.15649625  0.19855390    -0.89900
C1058       C  0.22275337  0.34929016  0.28848734     1.24600
O1059       O  0.31968123  0.26426441  0.21384952    -1.00600
O1060       O  0.28864072  0.13321874  0.25755140    -0.88000
O1061       O  0.23925725  0.30430305  0.14051734    -0.87600
O1062       O  0.12054950  0.25377373  0.30916942    -0.87600
Mn1063     Mn  0.27203647  0.17496559  0.29724097     1.47900
O1064       O  0.21785458  0.20684245  0.17288108    -0.76100
C1065       C  0.13312946  0.26123002  0.22429724     1.17600
O1066       O  0.27732830  0.26271507  0.33599265    -0.74800
O1067       O  0.19324741  0.16568875  0.23938135    -0.74500
Mn1068     Mn  0.19074836  0.32115459  0.21973023     1.51100
O1069       O  0.28749222  0.33946442  0.19922976    -0.86800
O1070       O  0.21853221  0.16226919  0.29381388    -0.94300
O1071       O  0.18042165  0.30776118  0.16405205    -0.89300
C1072       C  0.20352185  0.14567433  0.26721522     1.15400
C1073       C  0.09851960  0.01744268  0.60394413    -0.14200
C1074       C  0.11844487  0.04611592  0.61873867    -0.29400
H1075       H  0.10681001  0.98876150  0.61093331     0.14800
H1076       H  0.11127904  0.07511995  0.61197124     0.15400
C1077       C  0.95805164  0.16335024  0.60946275    -0.14200
C1078       C  0.93547052  0.13349095  0.60430838    -0.29400
H1079       H  0.98271968  0.16609865  0.59112806     0.14800
H1080       H  0.91090060  0.12957419  0.62251123     0.15400
C1081       C  0.04988607  0.19760163  0.33642795    -0.11100
C1082       C  0.07893902  0.20574691  0.32108442    -0.12600
C1083       C  0.00643016  0.13027959  0.44671705    -0.14200
C1084       C  0.03692838  0.10755905  0.44374070    -0.29400
H1085       H  0.98188011  0.12041164  0.46251369     0.14800
H1086       H  0.06192881  0.11728488  0.42864169     0.15400
C1087       C  0.09130412  0.26265080  0.22124242    -0.11100
C1088       C  0.05689071  0.26859541  0.22091874    -0.12600
C1089       C  0.13009036  0.58696795  0.97414559    -0.14200
C1090       C  0.13120892  0.61804325  0.95252047    -0.29400
H1091       H  0.15172793  0.58302747  0.99547995     0.14800
H1092       H  0.10930719  0.62293361  0.93167798     0.15400
C1093       C  0.01589875  0.39378694  0.89538765    -0.14200
C1094       C  0.99335507  0.42415262  0.89987024    -0.29400
H1095       H  0.03854211  0.38831788  0.91519932     0.14800
H1096       H  0.97001580  0.42808244  0.88047733     0.15400
C1097       C  0.98022584  0.37420000  0.17790930    -0.14200
C1098       C  0.00724551  0.38473163  0.15300766    -0.29400
H1099       H  0.95299847  0.38842009  0.17764789     0.14800
H1100       H  0.03475674  0.37109583  0.15390921     0.15400
C1101       C  0.97334697  0.83384547  0.40266766    -0.14200
C1102       C  0.00106346  0.83747387  0.42828160    -0.29400
H1103       H  0.95052836  0.85427104  0.40155494     0.14800
H1104       H  0.02328341  0.81629588  0.42863253     0.15400
C1105       C  0.02803398  0.59639080  0.14761277    -0.14200
C1106       C  0.00001817  0.58627979  0.12417016    -0.29400
H1107       H  0.05607621  0.58431558  0.14411817     0.14800
H1108       H  0.97213557  0.59855322  0.12858773     0.15400
C1109       C  0.20082608  0.10336092  0.26729844    -0.11100
C1110       C  0.20015299  0.06847007  0.27143973    -0.12600
C1111       C  0.14803072  0.96518586  0.39863144    -0.14200
C1112       C  0.15024266  0.99399556  0.37393837    -0.29400
H1113       H  0.16631536  0.94088275  0.39456032     0.14800
H1114       H  0.13164713  0.01817264  0.37748748     0.15400
C1115       C  0.30070224  0.09353996  0.20673129    -0.11100
C1116       C  0.31621941  0.06569145  0.19530710    -0.12600
C1117       C  0.85441335  0.38711366  0.99582063    -0.14200
C1118       C  0.86060533  0.41198571  0.02384004    -0.29400
H1119       H  0.87317384  0.38609724  0.97138658     0.14800
H1120       H  0.84241993  0.41154194  0.04876321     0.15400
C1121       C  0.57259444  0.13078678  0.03504955    -0.14200
C1122       C  0.60374793  0.13178888  0.05656354    -0.29400
H1123       H  0.56737117  0.15370035  0.01536158     0.14800
H1124       H  0.60974991  0.10881645  0.07593502     0.15400
C1125       C  0.40134920  0.00837254  0.88811162    -0.14200
C1126       C  0.37415559  0.98291143  0.88056236    -0.29400
H1127       H  0.40419303  0.03266340  0.86968336     0.14800
H1128       H  0.36969433  0.95890183  0.89908384     0.15400
C1129       C  0.38893862  0.87660020  0.03450436    -0.14200
C1130       C  0.42305570  0.87763553  0.01776072    -0.29400
H1131       H  0.38097293  0.89842277  0.05469830     0.14800
H1132       H  0.43042667  0.85598661  0.99722197     0.15400
C1133       C  0.46539898  0.01027084  0.15736917    -0.14200
C1134       C  0.44099274  0.01069099  0.18648911    -0.29400
H1135       H  0.49525639  0.00923979  0.16377624     0.14800
H1136       H  0.45201556  0.01142900  0.21506788     0.15400
C1137       C  0.86917488  0.01076996  0.40954661    -0.14200
C1138       C  0.88980346  0.97968257  0.41726641    -0.29400
H1139       H  0.87702685  0.03790299  0.42142489     0.14800
H1140       H  0.88073787  0.95261746  0.40606717     0.15400
C1141       C  0.61296756  0.96652679  0.14293046    -0.14200
C1142       C  0.58059130  0.98651625  0.14540216    -0.29400
H1143       H  0.61814639  0.94770590  0.11918397     0.14800
H1144       H  0.57675727  0.00616336  0.16871145     0.15400
C1145       C  0.17895900  0.33746040  0.07363911    -0.11100
C1146       C  0.18966401  0.32088343  0.10114039    -0.12600
C1147       C  0.15913859  0.46330012  0.02513054    -0.14200
C1148       C  0.12761858  0.48263247  0.03434049    -0.29400
H1149       H  0.18581193  0.47840570  0.02474139     0.14800
H1150       H  0.13038729  0.51230749  0.04146989     0.15400
C1151       C  0.24753502  0.21171393  0.11122581    -0.11100
C1152       C  0.25446700  0.20853871  0.07714260    -0.12600
C1153       C  0.37378559  0.13235793  0.02928521    -0.14200
C1154       C  0.34711366  0.13805480  0.00261837    -0.29400
H1155       H  0.37362850  0.15061051  0.05393008     0.14800
H1156       H  0.34557788  0.11953761  0.97824479     0.15400
C1157       C  0.85140395  0.97857741  0.61691203    -0.14200
C1158       C  0.84506123  0.99199643  0.58193653    -0.29400
H1159       H  0.87786285  0.96445902  0.62331016     0.14800
H1160       H  0.81924782  0.00754500  0.57623158     0.15400
C1161       C  0.59088191  0.02603952  0.86060444    -0.14200
C1162       C  0.58474335  0.00047647  0.88785009    -0.29400
H1163       H  0.57426759  0.05176320  0.85932680     0.14800
H1164       H  0.60191752  0.97496134  0.88775571     0.15400
C1165       C  0.99825008  0.87825536  0.57318619    -0.14200
C1166       C  0.02114810  0.87811316  0.60349938    -0.29400
H1167       H  0.98040870  0.85386097  0.56839740     0.14800
H1168       H  0.03951143  0.90200364  0.60897142     0.15400
C1169       C  0.97140193  0.61711375  0.86829302    -0.14200
C1170       C  0.98890633  0.58353920  0.86446709    -0.29400
H1171       H  0.95412489  0.62311844  0.89309113     0.14800
H1172       H  0.00733940  0.57872691  0.84023447     0.15400
C1173       C  0.60804584  0.86858159  0.98058150    -0.14200
C1174       C  0.57705038  0.86720396  0.00286302    -0.29400
H1175       H  0.61179816  0.89159794  0.96065150     0.14800
H1176       H  0.57422261  0.84392662  0.02255203     0.15400
C1177       C  0.86791667  0.60171986  0.03402631    -0.14200
C1178       C  0.86743529  0.57127637  0.01114914    -0.29400
H1179       H  0.89114055  0.60579451  0.05355050     0.14800
H1180       H  0.84383330  0.56790613  0.99202382     0.15400
C1181       C  0.88092992  0.34448055  0.53932829    -0.14200
C1182       C  0.89210377  0.36538413  0.50958827    -0.29400
H1183       H  0.89387443  0.34866858  0.56679106     0.14800
H1184       H  0.87989530  0.35984983  0.48198690     0.15400
C1185       C  0.88400813  0.45912570  0.37545001    -0.14200
C1186       C  0.91436895  0.48228769  0.37603583    -0.29400
H1187       H  0.88067428  0.43711864  0.39650775     0.14800
H1188       H  0.91636995  0.50387275  0.35443365     0.15400
C1189       C  0.14694111  0.30189628  0.43762051    -0.11100
C1190       C  0.16145691  0.29007562  0.40942380    -0.12600
C1191       C  0.03914948  0.39223000  0.48849139    -0.14200
C1192       C  0.06675081  0.38470755  0.51315519    -0.29400
H1193       H  0.03247599  0.37175330  0.46668388     0.14800
H1194       H  0.07421871  0.40524454  0.53470304     0.15400
C1195       C  0.27852020  0.23020354  0.43284630    -0.11100
C1196       C  0.27404704  0.23395410  0.39815137    -0.12600
C1197       C  0.09789698  0.67821029  0.51612296    -0.14200
C1198       C  0.08456005  0.65756571  0.48714095    -0.29400
H1199       H  0.08605596  0.67485809  0.54433900     0.14800
H1200       H  0.09547785  0.66388104  0.45906719     0.15400
C1201       C  0.59810196  0.08383724  0.51511393    -0.14200
C1202       C  0.59666936  0.11811022  0.49862327    -0.29400
H1203       H  0.62236397  0.07657450  0.53229480     0.14800
H1204       H  0.57194638  0.12644650  0.48264592     0.15400
C1205       C  0.34388830  0.13498901  0.50540135    -0.14200
C1206       C  0.34612525  0.10982420  0.53379252    -0.29400
H1207       H  0.36278821  0.13239568  0.48116424     0.14800
H1208       H  0.32733344  0.11275804  0.55804394     0.15400
C1209       C  0.35625272  0.92775817  0.47005891    -0.14200
C1210       C  0.35722371  0.89428561  0.45192541    -0.29400
H1211       H  0.33336389  0.93304724  0.49001353     0.14800
H1212       H  0.38053643  0.88713588  0.43316342     0.15400
C1213       C  0.53088776  0.88957389  0.36356651    -0.14200
C1214       C  0.51065399  0.92155217  0.35948235    -0.29400
H1215       H  0.54870829  0.88579843  0.38817566     0.14800
H1216       H  0.49324248  0.92443784  0.33452154     0.15400
C1217       C  0.63505053  0.89514419  0.53023224    -0.14200
C1218       C  0.61616484  0.90729480  0.49960528    -0.29400
H1219       H  0.62705593  0.90506894  0.55826181     0.14800
H1220       H  0.62530226  0.89746931  0.47187054     0.15400
C1221       C  0.88965459  0.62437022  0.47800955    -0.14200
C1222       C  0.92166891  0.62337529  0.49859044    -0.29400
H1223       H  0.88395940  0.60245538  0.45736817     0.14800
H1224       H  0.92584582  0.64457764  0.52038933     0.15400
C1225       C  0.47765526  0.90930094  0.64496819    -0.14200
C1226       C  0.45359731  0.91245352  0.61601491    -0.29400
H1227       H  0.50315265  0.92641867  0.64464966     0.14800
H1228       H  0.42803003  0.89548871  0.61547885     0.15400
C1229       C  0.09847273  0.48517842  0.62361393    -0.14200
C1230       C  0.07135938  0.51171090  0.62088134    -0.29400
H1231       H  0.10053015  0.46311879  0.60229445     0.14800
H1232       H  0.07024806  0.53404399  0.64198574     0.15400
C1233       C  0.65544883  0.49412121  0.08318551    -0.14200
C1234       C  0.66169544  0.52245048  0.10773976    -0.29400
H1235       H  0.67461675  0.47012911  0.08348830     0.14800
H1236       H  0.64326171  0.54692075  0.10825484     0.15400
C1237       C  0.50843240  0.60651436  0.08007152    -0.14200
C1238       C  0.48327916  0.60958806  0.10895477    -0.29400
H1239       H  0.53060117  0.62754796  0.07756910     0.14800
H1240       H  0.46194241  0.58809507  0.11346251     0.15400
C1241       C  0.49740475  0.63275141  0.91975009    -0.14200
C1242       C  0.51460656  0.62961178  0.88574918    -0.29400
H1243       H  0.48226213  0.65855769  0.92662169     0.14800
H1244       H  0.52906176  0.60372255  0.87775934     0.15400
C1245       C  0.34995180  0.54669364  0.88723071    -0.14200
C1246       C  0.34792665  0.52551134  0.91871016    -0.29400
H1247       H  0.37309110  0.56634072  0.88299429     0.14800
H1248       H  0.32470191  0.50571508  0.92130060     0.15400
C1249       C  0.45830832  0.37304810  0.93086686    -0.14200
C1250       C  0.44090524  0.37273406  0.89722298    -0.29400
H1251       H  0.47743454  0.35001208  0.93719311     0.14800
H1252       H  0.42175378  0.39534491  0.88944780     0.15400
C1253       C  0.49312788  0.08333167  0.65970447    -0.14200
C1254       C  0.51866006  0.11142210  0.66073527    -0.29400
H1255       H  0.47200765  0.08176565  0.68213003     0.14800
H1256       H  0.53996577  0.11388203  0.63860343     0.15400
C1257       C  0.63707527  0.48731853  0.92269418    -0.14200
C1258       C  0.60164993  0.47426876  0.92359291    -0.29400
H1259       H  0.64760276  0.50432858  0.94588432     0.14800
H1260       H  0.59196023  0.45742035  0.89978312     0.15400
C1261       C  0.88662893  0.53583818  0.64923850    -0.14200
C1262       C  0.91317463  0.50986615  0.64183292    -0.29400
H1263       H  0.88330041  0.55956044  0.63009009     0.14800
H1264       H  0.91554346  0.48575122  0.66064979     0.15400
C1265       C  0.29563595  0.43136893  0.19379012    -0.11100
C1266       C  0.27994558  0.40307783  0.20249798    -0.12600
C1267       C  0.38849542  0.46390503  0.10082384    -0.14200
C1268       C  0.38819196  0.46449009  0.06290900    -0.29400
H1269       H  0.41458465  0.45766240  0.11569672     0.14800
H1270       H  0.36285683  0.47234208  0.04759924     0.15400
C1271       C  0.22214991  0.39121645  0.29406685    -0.11100
C1272       C  0.21829210  0.42589137  0.29785836    -0.12600
C1273       C  0.12596501  0.50252529  0.36428579    -0.14200
C1274       C  0.09637598  0.52668490  0.36334844    -0.29400
H1275       H  0.12663271  0.48081783  0.38590119     0.14800
H1276       H  0.09637545  0.54941141  0.34278547     0.15400
C1277       C  0.41337842  0.28709764  0.23433230    -0.11100
C1278       C  0.37866403  0.28370339  0.23888494    -0.12600
C1279       C  0.49057326  0.35077640  0.13998116    -0.14200
C1280       C  0.52061079  0.35373734  0.11644432    -0.29400
H1281       H  0.46648387  0.36942603  0.13637124     0.14800
H1282       H  0.54471064  0.33525026  0.12063988     0.15400
C1283       C  0.38915117  0.17310761  0.29015936    -0.11100
C1284       C  0.41694370  0.15504045  0.29605852    -0.12600
C1285       C  0.44783994  0.05651946  0.39000525    -0.14200
C1286       C  0.46989697  0.04808586  0.36009700    -0.29400
H1287       H  0.42592905  0.07776553  0.38638616     0.14800
H1288       H  0.49210641  0.02711160  0.36288748     0.15400
C1289       C  0.20734585  0.92348742  0.26862926    -0.11100
C1290       C  0.21183518  0.88938688  0.26109171    -0.12600
C1291       C  0.32999359  0.93241631  0.18531456    -0.11100
C1292       C  0.31974614  0.90179814  0.19522691    -0.12600
C1293       C  0.08266225  0.71258579  0.19586928    -0.11100
C1294       C  0.11412683  0.72574019  0.19992580    -0.12600
C1295       C  0.09324122  0.78582783  0.30227857    -0.11100
C1296       C  0.05938775  0.79011457  0.30604573    -0.12600
C1297       C  0.26983673  0.79680631  0.10534825    -0.11100
C1298       C  0.28066049  0.80560882  0.07397762    -0.12600
C1299       C  0.20399180  0.69550378  0.07982363    -0.11100
C1300       C  0.19530134  0.69467428  0.04658687    -0.12600
C1301       C  0.38863865  0.69428074  0.21644149    -0.11100
C1302       C  0.42024294  0.68539080  0.20571439    -0.12600
C1303       C  0.44695244  0.80522614  0.29473336    -0.11100
C1304       C  0.41452620  0.80116545  0.28449315    -0.12600
C1305       C  0.22464435  0.56985723  0.29203134    -0.11100
C1306       C  0.23359924  0.60302920  0.28482078    -0.12600
C1307       C  0.30908701  0.56031459  0.15956475    -0.11100
C1308       C  0.29670870  0.59086842  0.16727815    -0.12600
C1309       C  0.29779210  0.76448986  0.37950927    -0.11100
C1310       C  0.30191948  0.77731946  0.41131436    -0.12600
C1311       C  0.20620627  0.70274789  0.40191865    -0.11100
C1312       C  0.20517668  0.69968548  0.43600212    -0.12600
C1313       C  0.87989668  0.26029519  0.23805069    -0.11100
C1314       C  0.91375642  0.26768060  0.23316513    -0.12600
C1315       C  0.91773602  0.19777551  0.36742558    -0.11100
C1316       C  0.88675784  0.20682658  0.35718117    -0.12600
C1317       C  0.79557690  0.07743105  0.31402508    -0.11100
C1318       C  0.78710742  0.10897876  0.30318851    -0.12600
C1319       C  0.69167135  0.04771229  0.21896252    -0.11100
C1320       C  0.69253001  0.08049040  0.22864388    -0.12600
C1321       C  0.71639173  0.19216734  0.10228762    -0.11100
C1322       C  0.72722010  0.19713280  0.13455815    -0.12600
C1323       C  0.78471403  0.29543890  0.11253564    -0.11100
C1324       C  0.79195772  0.29862334  0.07910461    -0.12600
C1325       C  0.59193128  0.27943551  0.24749074    -0.11100
C1326       C  0.55798411  0.28386125  0.23977688    -0.12600
C1327       C  0.57931314  0.16049939  0.30379985    -0.11100
C1328       C  0.54989423  0.14413605  0.30706404    -0.12600
C1329       C  0.75259494  0.38342162  0.31399386    -0.11100
C1330       C  0.76675290  0.41436576  0.31973576    -0.12600
C1331       C  0.69690207  0.40094742  0.20946240    -0.11100
C1332       C  0.69500177  0.43485926  0.20540872    -0.12600
C1333       C  0.67709815  0.22762730  0.40742132    -0.11100
C1334       C  0.66940874  0.21759685  0.43949257    -0.12600
C1335       C  0.77171296  0.29829999  0.43273909    -0.11100
C1336       C  0.77431980  0.30599966  0.46575274    -0.12600
C1337       C  0.10899786  0.80889306  0.72297299    -0.11100
C1338       C  0.07754888  0.81503538  0.71083379    -0.12600
C1339       C  0.05391980  0.70079187  0.79815177    -0.11100
C1340       C  0.08677494  0.70445390  0.78903944    -0.12600
C1341       C  0.41668755  0.79592983  0.69427237    -0.11100
C1342       C  0.38472799  0.78402009  0.69841892    -0.12600
C1343       C  0.40691959  0.72160327  0.80314890    -0.11100
C1344       C  0.43940979  0.71184917  0.80745405    -0.12600
C1345       C  0.19936518  0.74516263  0.88100915    -0.11100
C1346       C  0.19226732  0.73287731  0.91226147    -0.12600
C1347       C  0.30727620  0.80839081  0.90466913    -0.11100
C1348       C  0.31167060  0.81541290  0.93807943    -0.12600
C1349       C  0.26504323  0.90111130  0.79127676    -0.11100
C1350       C  0.27552069  0.93238050  0.80075376    -0.12600
C1351       C  0.19191778  0.95655865  0.69115291    -0.11100
C1352       C  0.20070509  0.92333029  0.68990757    -0.12600
C1353       C  0.29170767  0.62635576  0.76140152    -0.11100
C1354       C  0.29640373  0.59424362  0.77215739    -0.12600
C1355       C  0.18332612  0.56696648  0.69419787    -0.11100
C1356       C  0.18758143  0.60027685  0.70215675    -0.12600
C1357       C  0.21788551  0.70871416  0.57480586    -0.11100
C1358       C  0.22869004  0.71480182  0.60672171    -0.12600
C1359       C  0.28936025  0.81718675  0.58077893    -0.11100
C1360       C  0.29610690  0.81695951  0.54685927    -0.12600
C1361       C  0.25288544  0.22401887  0.90041031    -0.11100
C1362       C  0.25862200  0.21688512  0.93414050    -0.12600
C1363       C  0.18273813  0.35694490  0.94018699    -0.11100
C1364       C  0.19298550  0.34379823  0.91042665    -0.12600
C1365       C  0.19131558  0.12257837  0.74266352    -0.11100
C1366       C  0.18535297  0.09141209  0.72937139    -0.12600
C1367       C  0.29411640  0.10340124  0.80313653    -0.11100
C1368       C  0.29726373  0.06988895  0.80934858    -0.12600
C1369       C  0.09897416  0.28322428  0.80860474    -0.11100
C1370       C  0.06748358  0.29357750  0.81793051    -0.12600
C1371       C  0.07331734  0.21440093  0.70933511    -0.11100
C1372       C  0.03965898  0.20826348  0.70692994    -0.12600
C1373       C  0.40590577  0.30988727  0.78245469    -0.11100
C1374       C  0.37399210  0.30468168  0.77075051    -0.12600
C1375       C  0.42946395  0.20156807  0.71113590    -0.11100
C1376       C  0.39565151  0.20457579  0.71598078    -0.12600
C1377       C  0.21314195  0.39630267  0.70175550    -0.11100
C1378       C  0.20234708  0.42787339  0.69307564    -0.12600
C1379       C  0.28034506  0.42525753  0.80130087    -0.11100
C1380       C  0.28845500  0.45849739  0.80282575    -0.12600
C1381       C  0.27345897  0.23947924  0.61264695    -0.11100
C1382       C  0.27792519  0.23281073  0.57827318    -0.12600
C1383       C  0.17054380  0.29759132  0.60087011    -0.11100
C1384       C  0.16061595  0.30791599  0.57066272    -0.12600
C1385       C  0.71653398  0.11783095  0.81300740    -0.11100
C1386       C  0.70546053  0.08567166  0.81594581    -0.12600
C1387       C  0.77587737  0.09464504  0.70756990    -0.11100
C1388       C  0.78385930  0.06150638  0.70308782    -0.12600
C1389       C  0.68209883  0.42450948  0.80735409    -0.11100
C1390       C  0.68814581  0.39297756  0.79500047    -0.12600
C1391       C  0.79876182  0.41598346  0.72794655    -0.11100
C1392       C  0.80430929  0.44856648  0.71860206    -0.12600
C1393       C  0.79031716  0.28073618  0.94046492    -0.11100
C1394       C  0.78276205  0.27164063  0.90829179    -0.12600
C1395       C  0.68040527  0.20163161  0.96668702    -0.11100
C1396       C  0.68064797  0.21031069  0.93329570    -0.12600
C1397       C  0.87125892  0.20625922  0.74573864    -0.11100
C1398       C  0.90217786  0.20071944  0.73140369    -0.12600
C1399       C  0.89672149  0.31304542  0.81350852    -0.11100
C1400       C  0.92984397  0.31673856  0.82150902    -0.12600
C1401       C  0.56644175  0.22623966  0.71723104    -0.11100
C1402       C  0.59768682  0.23784032  0.72495115    -0.12600
C1403       C  0.57343661  0.29977882  0.82759842    -0.11100
C1404       C  0.53972565  0.30744014  0.82654047    -0.12600
C1405       C  0.76482116  0.30905823  0.60361953    -0.11100
C1406       C  0.75339476  0.30407387  0.63544410    -0.12600
C1407       C  0.68876305  0.19804175  0.60969097    -0.11100
C1408       C  0.67908684  0.19418394  0.57698159    -0.12600
C1409       C  0.79994709  0.72332652  0.12033885    -0.11100
C1410       C  0.80671521  0.71154319  0.08870803    -0.12600
C1411       C  0.69409945  0.78691562  0.09603406    -0.11100
C1412       C  0.69061516  0.79675801  0.06333174    -0.12600
C1413       C  0.78160830  0.69014923  0.42690616    -0.11100
C1414       C  0.76952672  0.69699291  0.39550140    -0.12600
C1415       C  0.69693499  0.80265874  0.45076192    -0.11100
C1416       C  0.70433640  0.79898919  0.41748372    -0.12600
C1417       C  0.92112368  0.79019729  0.28541101    -0.11100
C1418       C  0.88863174  0.78657940  0.27519479    -0.12600
C1419       C  0.94573533  0.68759111  0.20759104    -0.11100
C1420       C  0.91244814  0.68914726  0.21580423    -0.12600
C1421       C  0.73135015  0.88023521  0.21227358    -0.11100
C1422       C  0.72043399  0.91211551  0.20622029    -0.12600
C1423       C  0.79568970  0.93792821  0.32127575    -0.11100
C1424       C  0.78891279  0.90465810  0.31666863    -0.12600
C1425       C  0.70798887  0.60449143  0.23818294    -0.11100
C1426       C  0.70388522  0.57244034  0.22674777    -0.12600
C1427       C  0.80417629  0.54936171  0.31111728    -0.11100
C1428       C  0.80439860  0.58268656  0.30271228    -0.12600
C1429       C  0.61263071  0.76128655  0.30308810    -0.11100
C1430       C  0.58143509  0.77422210  0.30922769    -0.12600
C1431       C  0.59156849  0.69835678  0.19480022    -0.11100
C1432       C  0.55887113  0.68950887  0.18985401    -0.12600
C1433       C  0.79150192  0.89167960  0.73792716    -0.11100
C1434       C  0.79515912  0.92427082  0.72785140    -0.12600
C1435       C  0.69341769  0.91505150  0.79994076    -0.11100
C1436       C  0.68969942  0.94812817  0.80750894    -0.12600
C1437       C  0.88469410  0.73490551  0.80076265    -0.11100
C1438       C  0.91687212  0.72454439  0.80611927    -0.12600
C1439       C  0.90851434  0.79382608  0.69263754    -0.11100
C1440       C  0.94112211  0.80309129  0.68684537    -0.12600
C1441       C  0.72958573  0.80136737  0.89493117    -0.11100
C1442       C  0.71848789  0.80775408  0.92688568    -0.12600
C1443       C  0.78976923  0.69262604  0.91890169    -0.11100
C1444       C  0.79874474  0.68718616  0.95161378    -0.12600
C1445       C  0.60898396  0.70958868  0.77793673    -0.11100
C1446       C  0.57690519  0.70229731  0.78783044    -0.12600
C1447       C  0.58714390  0.81313935  0.71497248    -0.11100
C1448       C  0.55399546  0.81679583  0.70719822    -0.12600
C1449       C  0.77472845  0.58402101  0.70996836    -0.11100
C1450       C  0.76317745  0.61589469  0.71445055    -0.12600
C1451       C  0.69223973  0.56234368  0.82327244    -0.11100
C1452       C  0.70069007  0.59508913  0.81803905    -0.12600
C1453       C  0.69372502  0.78578706  0.58886272    -0.11100
C1454       C  0.69994011  0.77358312  0.62026662    -0.12600
C1455       C  0.80913766  0.69700510  0.56343745    -0.11100
C1456       C  0.80528918  0.70642565  0.59630197    -0.12600
loop_ 
_geom_bond_atom_site_label_1 
_geom_bond_atom_site_label_2 
_geom_bond_distance 
_geom_bond_site_symmetry_2 
_ccdc_geom_bond_type 
O1           C28   1.278       .  A
O1          Mn27   2.122       .  S
C2           O35   1.277       .  A
C2           O32   1.270       .  A
C2         C1456   1.450       .  S
O3          Mn10   2.175       .  S
O3          Mn21   2.135       .  S
O3          Mn25   2.172       .  S
O3          Mn27   2.129       .  S
O4           C14   1.271       .  A
O4          Mn38   2.101       .  S
O5           C28   1.271       .  A
O5          Mn21   2.102       .  S
O6           C33   1.256       .  A
O6          Mn25   2.122       .  S
O7          Mn38   1.970       .  S
O7          Mn27   1.981       .  S
O7           C23   1.219       .  S
C8           O11   1.256       .  A
C8         C1433   1.452       .  S
C8           O34   1.220       .  S
O9          Mn29   2.131       .  S
O9          Mn10   2.165       .  S
O9          Mn43   2.130       .  S
O9          Mn25   2.164       .  S
Mn10         O39   2.129       .  S
Mn10         O15   2.116       .  S
Mn10         O42   2.117       .  S
Mn10         O16   2.173       .  S
O11         Mn25   2.123       .  S
O12          C14   1.277       .  A
O12         Mn19   2.120       .  S
C13          O39   1.256       .  A
C13        C1454   1.447       .  S
C13          O26   1.215       .  S
C14        C1439   1.452       .  S
O15          C40   1.255       .  A
O16         Mn19   2.129       .  S
O16         Mn38   2.132       .  S
O16         Mn25   2.172       .  S
O17         Mn21   1.976       .  S
O17         Mn43   1.968       .  S
O17          C40   1.220       .  S
C18          O44   1.267       .  A
C18          O20   1.276       .  A
C18        C1435   1.440       .  S
Mn19         O32   2.098       .  S
Mn19         O34   1.983       .  S
Mn19         O26   1.962       .  S
O20         Mn43   2.116       .  S
Mn21         O37   2.118       .  S
Mn21         O31   1.965       .  S
O22          C24   1.269       .  A
O22         Mn27   2.094       .  S
C23          O41   1.254       .  A
C23        C1437   1.445       .  S
C24          O37   1.276       .  A
C24        C1452   1.447       .  S
Mn25         O41   2.113       .  S
O26         Mn29   1.963       .  S
Mn27         O45   1.960       .  S
C28        C1443   1.453       .  S
Mn29         O36   2.123       .  S
Mn29         O44   2.082       .  S
Mn29         O34   1.968       .  S
C30          O36   1.278       .  A
C30          O46   1.268       .  A
C30        C1447   1.447       .  S
O31         Mn43   1.973       .  S
O31          C33   1.218       .  S
C33        C1441   1.448       .  S
O35         Mn38   2.120       .  S
Mn38         O45   1.971       .  S
C40        C1445   1.448       .  S
O42          C47   1.254       .  A
Mn43         O46   2.088       .  S
O45          C47   1.218       .  S
C47        C1450   1.443       .  S
O48          C75   1.277       .  A
O48         Mn74   2.122       .  S
C49          O82   1.277       .  A
C49          O79   1.268       .  A
C49        C1431   1.446       .  S
O50         Mn57   2.167       .  S
O50         Mn68   2.132       .  S
O50         Mn72   2.171       .  S
O50         Mn74   2.128       .  S
O51          C61   1.271       .  A
O51         Mn85   2.101       .  S
O52          C75   1.267       .  A
O52         Mn68   2.084       .  S
O53          C80   1.255       .  A
O53         Mn72   2.118       .  S
O54         Mn85   1.965       .  S
O54         Mn74   1.970       .  S
O54          C70   1.217       .  S
C55          O58   1.256       .  A
C55        C1421   1.448       .  S
C55          O81   1.219       .  S
O56         Mn76   2.130       .  S
O56         Mn57   2.171       .  S
O56         Mn90   2.127       .  S
O56         Mn72   2.168       .  S
Mn57         O86   2.124       .  S
Mn57         O62   2.134       .  S
Mn57         O89   2.123       .  S
Mn57         O63   2.177       .  S
O58         Mn72   2.120       .  S
O59          C61   1.277       .  A
O59         Mn66   2.119       .  S
C60          O86   1.256       .  A
C60        C1429   1.445       .  S
C60          O73   1.216       .  S
C61        C1411   1.450       .  S
O62          C87   1.258       .  A
O63         Mn66   2.130       .  S
O63         Mn85   2.130       .  S
O63         Mn72   2.168       .  S
O64         Mn68   1.964       .  S
O64         Mn90   1.968       .  S
O64          C87   1.217       .  S
C65          O91   1.267       .  A
C65          O67   1.280       .  A
C65        C1424   1.449       .  S
Mn66         O79   2.088       .  S
Mn66         O81   1.975       .  S
Mn66         O73   1.962       .  S
O67         Mn90   2.131       .  S
Mn68         O84   2.134       .  S
Mn68         O78   1.972       .  S
O69          C71   1.269       .  A
O69         Mn74   2.095       .  S
C70          O88   1.256       .  A
C70        C1409   1.449       .  S
C71          O84   1.280       .  A
C71        C1428   1.455       .  S
Mn72         O88   2.126       .  S
O73         Mn76   1.962       .  S
Mn74         O92   1.967       .  S
C75        C1420   1.445       .  S
Mn76         O83   2.118       .  S
Mn76         O91   2.084       .  S
Mn76         O81   1.967       .  S
C77          O83   1.276       .  A
C77          O93   1.267       .  A
C77        C1416   1.441       .  S
O78         Mn90   1.980       .  S
O78          C80   1.220       .  S
C80        C1418   1.449       .  S
O82         Mn85   2.120       .  S
Mn85         O92   1.979       .  S
C87        C1414   1.453       .  S
O89          C94   1.257       .  A
Mn90         O93   2.083       .  S
O92          C94   1.219       .  S
C94        C1425   1.449       .  S
O95         C122   1.281       .  A
O95        Mn121   2.140       .  S
C96         O129   1.278       .  A
C96         O126   1.269       .  A
C96        C1407   1.451       .  S
O97        Mn104   2.168       .  S
O97        Mn115   2.133       .  S
O97        Mn119   2.178       .  S
O97        Mn121   2.131       .  S
O98         C108   1.268       .  A
O98        Mn132   2.094       .  S
O99         C122   1.269       .  A
O99        Mn115   2.094       .  S
O100        C127   1.256       .  A
O100       Mn119   2.114       .  S
O101       Mn132   1.965       .  S
O101       Mn121   1.972       .  S
O101        C117   1.217       .  S
C102        O105   1.257       .  A
C102       C1397   1.453       .  S
C102        O128   1.214       .  S
O103       Mn123   2.132       .  S
O103       Mn104   2.172       .  S
O103       Mn137   2.133       .  S
O103       Mn119   2.168       .  S
Mn104       O133   2.109       .  S
Mn104       O109   2.133       .  S
Mn104       O136   2.118       .  S
Mn104       O110   2.179       .  S
O105       Mn119   2.141       .  S
O106        C108   1.279       .  A
O106       Mn113   2.132       .  S
C107        O133   1.253       .  A
C107       C1406   1.434       .  S
C107        O120   1.216       .  S
C108       C1387   1.454       .  S
O109        C134   1.257       .  A
O110       Mn113   2.129       .  S
O110       Mn132   2.133       .  S
O110       Mn119   2.175       .  S
O111       Mn115   1.970       .  S
O111       Mn137   1.971       .  S
O111        C134   1.216       .  S
C112        O138   1.269       .  A
C112        O114   1.279       .  A
C112       C1399   1.449       .  S
Mn113       O126   2.094       .  S
Mn113       O128   1.965       .  S
Mn113       O120   1.969       .  S
O114       Mn137   2.125       .  S
Mn115       O131   2.150       .  S
Mn115       O125   1.981       .  S
O116        C118   1.268       .  A
O116       Mn121   2.095       .  S
C117        O135   1.254       .  A
C117       C1385   1.441       .  S
C118        O131   1.283       .  A
C118       C1403   1.464       .  S
Mn119       O135   2.116       .  S
O120       Mn123   1.969       .  S
Mn121       O139   1.975       .  S
C122       C1396   1.458       .  S
Mn123       O130   2.120       .  S
Mn123       O138   2.092       .  S
Mn123       O128   1.965       .  S
C124        O130   1.277       .  A
C124        O140   1.272       .  A
C124       C1391   1.454       .  S
O125       Mn137   1.985       .  S
O125        C127   1.222       .  S
C127       C1394   1.448       .  S
O129       Mn132   2.126       .  S
Mn132       O139   1.971       .  S
C134       C1390   1.453       .  S
O136        C141   1.255       .  A
Mn137       O140   2.107       .  S
O139        C141   1.219       .  S
C141       C1402   1.446       .  S
O142        C169   1.264       .  A
O142       Mn168   2.066       .  S
C143        O176   1.262       .  A
C143        O173   1.263       .  A
C143       C1383   1.400       .  S
O144       Mn151   2.184       .  S
O144       Mn162   2.134       .  S
O144       Mn166   2.179       .  S
O144       Mn168   2.142       .  S
O145        C155   1.267       .  A
O145       Mn179   2.083       .  S
O146        C169   1.272       .  A
O146       Mn162   2.106       .  S
O147        C174   1.262       .  A
O147       Mn166   2.149       .  S
O148       Mn179   1.952       .  S
O148       Mn168   1.971       .  S
O148        C164   1.221       .  S
C149        O152   1.263       .  A
C149       C1365   1.455       .  S
C149        O175   1.217       .  S
O150       Mn170   2.135       .  S
O150       Mn151   2.163       .  S
O150       Mn184   2.138       .  S
O150       Mn166   2.159       .  S
Mn151       O180   2.169       .  S
Mn151       O156   2.135       .  S
Mn151       O183   2.137       .  S
Mn151       O157   2.169       .  S
O152       Mn166   2.147       .  S
O153        C155   1.280       .  A
O153       Mn160   2.133       .  S
C154        O180   1.266       .  A
C154       C1381   1.504       .  S
C154        O167   1.229       .  S
C155       C1371   1.448       .  S
O156        C181   1.263       .  A
O157       Mn160   2.137       .  S
O157       Mn179   2.131       .  S
O157       Mn166   2.168       .  S
O158       Mn162   1.978       .  S
O158       Mn184   1.963       .  S
O158        C181   1.224       .  S
C159        O185   1.268       .  A
C159        O161   1.280       .  A
C159       C1367   1.446       .  S
Mn160       O173   2.061       .  S
Mn160       O175   1.958       .  S
Mn160       O167   1.987       .  S
O161       Mn184   2.125       .  S
Mn162       O178   2.127       .  S
Mn162       O172   1.995       .  S
O163        C165   1.268       .  A
O163       Mn168   2.089       .  S
C164        O182   1.257       .  A
C164       C1369   1.451       .  S
C165        O178   1.279       .  A
C165       C1379   1.448       .  S
Mn166       O182   2.120       .  S
O167       Mn170   2.008       .  S
Mn168       O186   1.942       .  S
C169       C1364   1.429       .  S
Mn170       O177   2.121       .  S
Mn170       O185   2.087       .  S
Mn170       O175   1.962       .  S
C171        O177   1.279       .  A
C171        O187   1.268       .  A
C171       C1376   1.443       .  S
O172       Mn184   2.008       .  S
O172        C174   1.228       .  S
C174       C1361   1.489       .  S
O176       Mn179   2.053       .  S
Mn179       O186   1.960       .  S
C181       C1374   1.458       .  S
O183        C188   1.259       .  A
Mn184       O187   2.086       .  S
O186        C188   1.220       .  S
C188       C1377   1.462       .  S
O189        C216   1.279       .  A
O189       Mn215   2.128       .  S
C190        O223   1.282       .  A
C190        O220   1.267       .  A
C190       C1359   1.459       .  S
O191       Mn198   2.171       .  S
O191       Mn209   2.131       .  S
O191       Mn213   2.172       .  S
O191       Mn215   2.135       .  S
O192        C202   1.268       .  A
O192       Mn226   2.088       .  S
O193        C216   1.270       .  A
O193       Mn209   2.099       .  S
O194        C221   1.256       .  A
O194       Mn213   2.120       .  S
O195       Mn226   1.980       .  S
O195       Mn215   1.975       .  S
O195        C211   1.220       .  S
C196        O199   1.256       .  A
C196       C1337   1.449       .  S
C196        O222   1.217       .  S
O197       Mn217   2.131       .  S
O197       Mn198   2.175       .  S
O197       Mn231   2.134       .  S
O197       Mn213   2.178       .  S
Mn198       O227   2.117       .  S
Mn198       O203   2.114       .  S
Mn198       O230   2.130       .  S
Mn198       O204   2.168       .  S
O199       Mn213   2.129       .  S
O200        C202   1.281       .  A
O200       Mn207   2.139       .  S
C201        O227   1.255       .  A
C201       C1358   1.446       .  S
C201        O214   1.219       .  S
C202       C1352   1.455       .  S
O203        C228   1.254       .  A
O204       Mn207   2.131       .  S
O204       Mn226   2.131       .  S
O204       Mn213   2.169       .  S
O205       Mn209   1.980       .  S
O205       Mn231   1.963       .  S
O205        C228   1.220       .  S
C206        O232   1.268       .  A
C206        O208   1.276       .  A
C206       C1340   1.444       .  S
Mn207       O220   2.088       .  S
Mn207       O222   1.964       .  S
Mn207       O214   1.980       .  S
O208       Mn231   2.115       .  S
Mn209       O225   2.112       .  S
Mn209       O219   1.963       .  S
O210        C212   1.269       .  A
O210       Mn215   2.091       .  S
C211        O229   1.257       .  A
C211       C1349   1.452       .  S
C212        O225   1.276       .  A
C212       C1343   1.443       .  S
Mn213       O229   2.125       .  S
O214       Mn217   1.977       .  S
Mn215       O233   1.967       .  S
C216       C1347   1.454       .  S
Mn217       O224   2.141       .  S
Mn217       O232   2.090       .  S
Mn217       O222   1.969       .  S
C218        O224   1.281       .  A
C218        O234   1.271       .  A
C218       C1356   1.463       .  S
O219       Mn231   1.974       .  S
O219        C221   1.219       .  S
C221       C1345   1.447       .  S
O223       Mn226   2.147       .  S
Mn226       O233   1.970       .  S
C228       C1353   1.446       .  S
O230        C235   1.256       .  A
Mn231       O234   2.104       .  S
O233        C235   1.216       .  S
C235       C1342   1.450       .  S
O236        C263   1.265       .  A
O236       Mn262   2.070       .  S
C237        O270   1.266       .  A
C237        O267   1.269       .  A
C237       C1316   1.425       .  S
O238       Mn245   2.172       .  S
O238       Mn256   2.132       .  S
O238       Mn260   2.183       .  S
O238       Mn262   2.137       .  S
O239        C249   1.265       .  A
O239       Mn273   2.071       .  S
O240        C263   1.266       .  A
O240       Mn256   2.079       .  S
O241        C268   1.266       .  A
O241       Mn260   2.165       .  S
O242       Mn273   1.945       .  S
O242       Mn262   1.963       .  S
O242        C258   1.219       .  S
C243        O246   1.267       .  A
C243       C1329   1.463       .  S
C243        O269   1.219       .  S
O244       Mn264   2.132       .  S
O244       Mn245   2.165       .  S
O244       Mn278   2.134       .  S
O244       Mn260   2.159       .  S
Mn245       O274   2.156       .  S
Mn245       O250   2.139       .  S
Mn245       O277   2.131       .  S
Mn245       O251   2.172       .  S
O246       Mn260   2.158       .  S
O247        C249   1.274       .  A
O247       Mn254   2.109       .  S
C248        O274   1.262       .  A
C248       C1313   1.488       .  S
C248        O261   1.224       .  S
C249       C1335   1.429       .  S
O250        C275   1.263       .  A
O251       Mn254   2.135       .  S
O251       Mn273   2.138       .  S
O251       Mn260   2.179       .  S
O252       Mn256   1.964       .  S
O252       Mn278   1.956       .  S
O252        C275   1.220       .  S
C253        O279   1.267       .  A
C253        O255   1.281       .  A
C253       C1331   1.444       .  S
Mn254       O267   2.090       .  S
Mn254       O269   1.959       .  S
Mn254       O261   1.984       .  S
O255       Mn278   2.127       .  S
Mn256       O272   2.118       .  S
Mn256       O266   1.990       .  S
O257        C259   1.270       .  A
O257       Mn262   2.091       .  S
C258        O276   1.258       .  A
C258       C1333   1.454       .  S
C259        O272   1.278       .  A
C259       C1320   1.443       .  S
Mn260       O276   2.131       .  S
O261       Mn264   2.003       .  S
Mn262       O280   1.955       .  S
C263       C1327   1.418       .  S
Mn264       O271   2.121       .  S
Mn264       O279   2.080       .  S
Mn264       O269   1.959       .  S
C265        O271   1.279       .  A
C265        O281   1.269       .  A
C265       C1323   1.446       .  S
O266       Mn278   2.015       .  S
O266        C268   1.228       .  S
C268       C1325   1.498       .  S
O270       Mn273   2.072       .  S
Mn273       O280   1.964       .  S
C275       C1322   1.455       .  S
O277        C282   1.259       .  A
Mn278       O281   2.091       .  S
O280        C282   1.220       .  S
C282       C1318   1.459       .  S
O283        C310   1.279       .  A
O283       Mn309   2.133       .  S
C284        O317   1.279       .  A
C284        O314   1.267       .  A
C284       C1311   1.441       .  S
O285       Mn292   2.180       .  S
O285       Mn303   2.141       .  S
O285       Mn307   2.188       .  S
O285       Mn309   2.136       .  S
O286        C296   1.268       .  A
O286       Mn320   2.086       .  S
O287        C310   1.269       .  A
O287       Mn303   2.092       .  S
O288        C315   1.255       .  A
O288       Mn307   2.113       .  S
O289       Mn320   1.968       .  S
O289       Mn309   1.972       .  S
O289        C305   1.219       .  S
C290        O293   1.266       .  A
C290       C1290   1.504       .  S
C290        O316   1.225       .  S
O291       Mn311   2.138       .  S
O291       Mn292   2.186       .  S
O291       Mn325   2.139       .  S
O291       Mn307   2.177       .  S
Mn292       O321   2.146       .  S
Mn292       O297   2.128       .  S
Mn292       O324   2.182       .  S
Mn292       O298   2.159       .  S
O293       Mn307   2.179       .  S
O294        C296   1.279       .  A
O294       Mn301   2.125       .  S
C295        O321   1.265       .  A
C295       C1309   1.461       .  S
C295        O308   1.222       .  S
C296       C1295   1.446       .  S
O297        C322   1.259       .  A
O298       Mn301   2.138       .  S
O298       Mn320   2.135       .  S
O298       Mn307   2.155       .  S
O299       Mn303   1.969       .  S
O299       Mn325   1.952       .  S
O299        C322   1.221       .  S
C300        O326   1.270       .  A
C300        O302   1.262       .  A
C300       C1292   1.420       .  S
Mn301       O314   2.078       .  S
Mn301       O316   2.002       .  S
Mn301       O308   1.963       .  S
O302       Mn325   2.060       .  S
Mn303       O319   2.057       .  S
Mn303       O313   1.940       .  S
O304        C306   1.271       .  A
O304       Mn309   2.099       .  S
C305        O323   1.263       .  A
C305       C1294   1.452       .  S
C306        O319   1.262       .  A
C306       C1308   1.421       .  S
Mn307       O323   2.139       .  S
O308       Mn311   1.972       .  S
Mn309       O327   1.986       .  S
C310       C1299   1.453       .  S
Mn311       O318   2.116       .  S
Mn311       O326   2.094       .  S
Mn311       O316   1.980       .  S
C312        O318   1.276       .  A
C312        O328   1.271       .  A
C312       C1304   1.449       .  S
O313       Mn325   1.966       .  S
O313        C315   1.221       .  S
C315       C1297   1.446       .  S
O317       Mn320   2.124       .  S
Mn320       O327   1.993       .  S
C322       C1301   1.457       .  S
O324        C329   1.267       .  A
Mn325       O328   2.100       .  S
O327        C329   1.223       .  S
C329       C1306   1.500       .  S
C330       C1328   1.420       .  S
C330        N331   1.357       .  A
C330        N335   1.347       .  A
N331        C332   1.359       .  A
C332        N333   1.358       .  A
C332       C1286   1.472       .  S
N333        C334   1.353       .  A
C334       C1284   1.413       .  S
C334        N335   1.346       .  A
C336       C1326   1.495       .  S
C336        N337   1.359       .  A
C336        N341   1.391       .  A
N337        C338   1.358       .  A
C338        N339   1.357       .  A
C338       C1279   1.479       .  S
N339        C340   1.357       .  A
C340       C1277   1.495       .  S
C340        N341   1.390       .  A
C342       C1272   1.495       .  S
C342        N343   1.388       .  A
C342        N347   1.354       .  A
N343        C344   1.391       .  A
C344       C1305   1.499       .  S
C344        N345   1.366       .  A
N345        C346   1.362       .  A
C346        N347   1.356       .  A
C346       C1273   1.481       .  S
C348       C1307   1.421       .  S
C348        N349   1.349       .  A
C348        N353   1.360       .  A
N349        C350   1.345       .  A
C350       C1265   1.404       .  S
C350        N351   1.349       .  A
N351        C352   1.348       .  A
C352        N353   1.361       .  A
C352       C1267   1.453       .  S
C354       C1392   1.455       .  S
C354        N355   1.367       .  A
C354        N359   1.362       .  A
N355        C356   1.365       .  A
C356       C1449   1.442       .  S
C356        N357   1.352       .  A
N357        C358   1.351       .  A
C358        N359   1.363       .  A
C358       C1261   1.475       .  S
C360       C1451   1.446       .  S
C360        N361   1.367       .  A
C360        N365   1.353       .  A
N361        C362   1.368       .  A
C362       C1389   1.455       .  S
C362        N363   1.361       .  A
N363        C364   1.360       .  A
C364        N365   1.353       .  A
C364       C1257   1.473       .  S
C366       C1375   1.444       .  S
C366        N367   1.352       .  A
C366        N371   1.367       .  A
N367        C368   1.354       .  A
C368        N369   1.354       .  A
C368       C1254   1.468       .  S
N369        C370   1.357       .  A
C370       C1401   1.446       .  S
C370        N371   1.368       .  A
C372       C1373   1.455       .  S
C372        N373   1.351       .  A
C372        N377   1.375       .  A
N373        C374   1.349       .  A
C374        N375   1.358       .  A
C374       C1250   1.464       .  S
N375        C376   1.358       .  A
C376       C1404   1.464       .  S
C376        N377   1.376       .  A
N378        C383   1.359       .  A
N378        C382   1.355       .  A
N378        H410   1.031       .  S
N379        C386   1.347       .  A
N379        C387   1.349       .  A
N380        C385   1.349       .  A
N380        C384   1.350       .  A
N380        H411   1.029       .  S
N381        C388   1.347       .  A
N381        C389   1.348       .  A
C382        C390   1.384       .  A
C382        C398   1.425       .  A
C383        C399   1.427       .  A
C383        C391   1.389       .  A
C384        C392   1.389       .  A
C384        C401   1.416       .  A
C385        C400   1.417       .  A
C385        C393   1.385       .  A
C386        C398   1.414       .  A
C386        C394   1.389       .  A
C387        C401   1.418       .  A
C387        C395   1.384       .  A
C388        C396   1.384       .  A
C388        C399   1.408       .  A
C389        C397   1.387       .  A
C389        C400   1.413       .  A
C390        C391   1.367       .  A
C390        H402   1.082       .  S
C391        H403   1.076       .  S
C392        C393   1.376       .  A
C392        H404   1.081       .  S
C393        H405   1.082       .  S
C394        C395   1.373       .  A
C394        H406   1.081       .  S
C395        H407   1.082       .  S
C396        C397   1.371       .  A
C396        H408   1.082       .  S
C397        H409   1.081       .  S
C398       C1241   1.495       .  S
C399       C1258   1.494       .  S
C400       C1249   1.490       .  S
C401       C1246   1.493       .  S
N412        C417   1.355       .  A
N412        C416   1.359       .  A
N412        H444   1.039       .  S
N413        C420   1.349       .  A
N413        C421   1.348       .  A
N414        C419   1.353       .  A
N414        C418   1.348       .  A
N414        H445   1.033       .  S
N415        C422   1.347       .  A
N415        C423   1.349       .  A
C416        C424   1.387       .  A
C416        C432   1.420       .  A
C417        C433   1.423       .  A
C417        C425   1.389       .  A
C418        C426   1.389       .  A
C418        C435   1.414       .  A
C419        C434   1.414       .  A
C419        C427   1.384       .  A
C420        C432   1.412       .  A
C420        C428   1.386       .  A
C421        C435   1.412       .  A
C421        C429   1.386       .  A
C422        C430   1.389       .  A
C422        C433   1.414       .  A
C423        C431   1.382       .  A
C423        C434   1.405       .  A
C424        C425   1.370       .  A
C424        H436   1.081       .  S
C425        H437   1.080       .  S
C426        C427   1.368       .  A
C426        H438   1.082       .  S
C427        H439   1.082       .  S
C428        C429   1.374       .  A
C428        H440   1.082       .  S
C429        H441   1.082       .  S
C430        C431   1.376       .  A
C430        H442   1.082       .  S
C431        H443   1.082       .  S
C432       C1280   1.501       .  S
C433       C1233   1.490       .  S
C434       C1237   1.499       .  S
C435       C1268   1.476       .  S
C446       C1355   1.463       .  S
C446        N447   1.372       .  A
C446        N451   1.357       .  A
N447        C448   1.373       .  A
C448       C1378   1.462       .  S
C448        N449   1.360       .  A
N449        C450   1.358       .  A
C450        N451   1.359       .  A
C450       C1229   1.481       .  S
C452       C1380   1.448       .  S
C452        N453   1.369       .  A
C452        N457   1.356       .  A
N453        C454   1.368       .  A
C454       C1354   1.444       .  S
C454        N455   1.353       .  A
N455        C456   1.351       .  A
C456        N457   1.356       .  A
C456       C1245   1.465       .  S
C458       C1448   1.446       .  S
C458        N459   1.368       .  A
C458        N463   1.352       .  A
N459        C460   1.369       .  A
C460       C1341   1.451       .  S
C460        N461   1.359       .  A
N461        C462   1.358       .  A
C462        N463   1.352       .  A
C462       C1225   1.471       .  S
C464       C1446   1.448       .  S
C464        N465   1.356       .  A
C464        N469   1.366       .  A
N465        C466   1.355       .  A
C466        N467   1.354       .  A
C466       C1242   1.462       .  S
N467        C468   1.355       .  A
C468       C1344   1.443       .  S
C468        N469   1.367       .  A
C470       C1413   1.454       .  S
C470        N471   1.367       .  A
C470        N475   1.356       .  A
N471        C472   1.369       .  A
C472       C1455   1.450       .  S
C472        N473   1.358       .  A
N473        C474   1.357       .  A
C474        N475   1.356       .  A
C474       C1221   1.470       .  S
C476       C1453   1.448       .  S
C476        N477   1.367       .  A
C476        N481   1.361       .  A
N477        C478   1.365       .  A
C478       C1415   1.441       .  S
C478        N479   1.350       .  A
N479        C480   1.354       .  A
C480        N481   1.358       .  A
C480       C1217   1.478       .  S
C482       C1303   1.449       .  S
C482        N483   1.359       .  A
C482        N487   1.366       .  A
N483        C484   1.359       .  A
C484        N485   1.356       .  A
C484       C1213   1.475       .  S
N485        C486   1.357       .  A
C486       C1430   1.447       .  S
C486        N487   1.365       .  A
C488       C1302   1.457       .  S
C488        N489   1.359       .  A
C488        N493   1.368       .  A
N489        C490   1.359       .  A
C490        N491   1.354       .  A
C490       C1238   1.473       .  S
N491        C492   1.355       .  A
C492       C1432   1.446       .  S
C492        N493   1.368       .  A
N494        C499   1.353       .  A
N494        C498   1.351       .  A
N494        H526   1.036       .  S
N495        C502   1.348       .  A
N495        C503   1.347       .  A
N496        C501   1.356       .  A
N496        C500   1.354       .  A
N496        H527   1.044       .  S
N497        C504   1.348       .  A
N497        C505   1.348       .  A
C498        C506   1.386       .  A
C498        C514   1.419       .  A
C499        C515   1.414       .  A
C499        C507   1.388       .  A
C500        C508   1.386       .  A
C500        C517   1.416       .  A
C501        C516   1.417       .  A
C501        C509   1.388       .  A
C502        C514   1.407       .  A
C502        C510   1.387       .  A
C503        C517   1.403       .  A
C503        C511   1.384       .  A
C504        C512   1.383       .  A
C504        C515   1.408       .  A
C505        C513   1.388       .  A
C505        C516   1.409       .  A
C506        C507   1.371       .  A
C506        H518   1.082       .  S
C507        H519   1.081       .  S
C508        C509   1.367       .  A
C508        H520   1.081       .  S
C509        H521   1.080       .  S
C510        C511   1.375       .  A
C510        H522   1.082       .  S
C511        H523   1.082       .  S
C512        C513   1.376       .  A
C512        H524   1.082       .  S
C513        H525   1.082       .  S
C514       C1209   1.496       .  S
C515       C1214   1.496       .  S
C516       C1218   1.494       .  S
C517       C1226   1.489       .  S
N528        C533   1.356       .  A
N528        C532   1.355       .  A
N528        H560   1.040       .  S
N529        C536   1.348       .  A
N529        C537   1.347       .  A
N530        C535   1.356       .  A
N530        C534   1.356       .  A
N530        H561   1.039       .  S
N531        C538   1.351       .  A
N531        C539   1.351       .  A
C532        C540   1.389       .  A
C532        C548   1.419       .  A
C533        C549   1.413       .  A
C533        C541   1.386       .  A
C534        C542   1.381       .  A
C534        C551   1.417       .  A
C535        C550   1.427       .  A
C535        C543   1.391       .  A
C536        C548   1.410       .  A
C536        C544   1.387       .  A
C537        C551   1.402       .  A
C537        C545   1.384       .  A
C538        C546   1.383       .  A
C538        C549   1.409       .  A
C539        C547   1.389       .  A
C539        C550   1.415       .  A
C540        C541   1.367       .  A
C540        H552   1.080       .  S
C541        H553   1.081       .  S
C542        C543   1.363       .  A
C542        H554   1.082       .  S
C543        H555   1.073       .  S
C544        C545   1.373       .  A
C544        H556   1.082       .  S
C545        H557   1.082       .  S
C546        C547   1.371       .  A
C546        H558   1.082       .  S
C547        H559   1.082       .  S
C548       C1253   1.488       .  S
C549       C1206   1.496       .  S
C550       C1285   1.493       .  S
C551       C1201   1.499       .  S
C562       C1357   1.447       .  S
C562        N563   1.361       .  A
C562        N567   1.369       .  A
N563        C564   1.356       .  A
C564        N565   1.350       .  A
C564       C1197   1.477       .  S
N565        C566   1.345       .  A
C566       C1312   1.439       .  S
C566        N567   1.366       .  A
C568       C1310   1.460       .  S
C568        N569   1.374       .  A
C568        N573   1.353       .  A
N569        C570   1.376       .  A
C570       C1360   1.459       .  S
C570        N571   1.356       .  A
N571        C572   1.355       .  A
C572        N573   1.353       .  A
C572       C1210   1.463       .  S
C574       C1382   1.500       .  S
C574        N575   1.360       .  A
C574        N579   1.394       .  A
N575        C576   1.359       .  A
C576        N577   1.354       .  A
C576       C1205   1.475       .  S
N577        C578   1.354       .  A
C578       C1195   1.497       .  S
C578        N579   1.393       .  A
C580       C1189   1.412       .  S
C580        N581   1.359       .  A
C580        N585   1.347       .  A
N581        C582   1.360       .  A
C582        N583   1.349       .  A
C582       C1192   1.454       .  S
N583        C584   1.347       .  A
C584       C1384   1.401       .  S
C584        N585   1.343       .  A
C586       C1427   1.455       .  S
C586        N587   1.354       .  A
C586        N591   1.373       .  A
N587        C588   1.355       .  A
C588        N589   1.358       .  A
C588       C1185   1.475       .  S
N589        C590   1.360       .  A
C590       C1330   1.465       .  S
C590        N591   1.373       .  A
C592       C1332   1.445       .  S
C592        N593   1.351       .  A
C592        N597   1.369       .  A
N593        C594   1.353       .  A
C594        N595   1.353       .  A
C594       C1234   1.467       .  S
N595        C596   1.356       .  A
C596       C1426   1.448       .  S
C596        N597   1.369       .  A
N598        C603   1.348       .  A
N598        C602   1.346       .  A
N598        H630   1.037       .  S
N599        C606   1.354       .  A
N599        C607   1.352       .  A
N600        C605   1.351       .  A
N600        C604   1.346       .  A
N600        H631   1.035       .  S
N601        C608   1.350       .  A
N601        C609   1.348       .  A
C602        C610   1.385       .  A
C602        C618   1.405       .  A
C603        C619   1.408       .  A
C603        C611   1.388       .  A
C604        C612   1.386       .  A
C604        C621   1.408       .  A
C605        C620   1.414       .  A
C605        C613   1.386       .  A
C606        C618   1.416       .  A
C606        C614   1.387       .  A
C607        C621   1.418       .  A
C607        C615   1.385       .  A
C608        C616   1.389       .  A
C608        C619   1.415       .  A
C609        C617   1.384       .  A
C609        C620   1.406       .  A
C610        C611   1.379       .  A
C610        H622   1.082       .  S
C611        H623   1.082       .  S
C612        C613   1.382       .  A
C612        H624   1.082       .  S
C613        H625   1.082       .  S
C614        C615   1.371       .  A
C614        H626   1.081       .  S
C615        H627   1.083       .  S
C616        C617   1.364       .  A
C616        H628   1.079       .  S
C617        H629   1.081       .  S
C618       C1186   1.498       .  S
C619       C1182   1.486       .  S
C620       C1262   1.484       .  S
C621       C1222   1.497       .  S
N632        C637   1.349       .  A
N632        C636   1.348       .  A
N632        H664   1.038       .  S
N633        C640   1.353       .  A
N633        C641   1.350       .  A
N634        C639   1.350       .  A
N634        C638   1.347       .  A
N634        H665   1.033       .  S
N635        C642   1.354       .  A
N635        C643   1.355       .  A
C636        C644   1.381       .  A
C636        C652   1.402       .  A
C637        C653   1.416       .  A
C637        C645   1.393       .  A
C638        C646   1.391       .  A
C638        C655   1.419       .  A
C639        C654   1.407       .  A
C639        C647   1.382       .  A
C640        C652   1.414       .  A
C640        C648   1.382       .  A
C641        C655   1.417       .  A
C641        C649   1.391       .  A
C642        C650   1.389       .  A
C642        C653   1.419       .  A
C643        C651   1.382       .  A
C643        C654   1.408       .  A
C644        C645   1.380       .  A
C644        H656   1.082       .  S
C645        H657   1.082       .  S
C646        C647   1.379       .  A
C646        H658   1.083   1_455  S
C647        H659   1.082       .  S
C648        C649   1.369       .  A
C648        H660   1.082       .  S
C649        H661   1.081       .  S
C650        C651   1.361       .  A
C650        H662   1.079       .  S
C651        H663   1.082       .  S
C652       C1274   1.504       .  S
C653       C1198   1.495       .  S
C654       C1230   1.488       .  S
C655       C1191   1.486       .  S
C666       C1405   1.436       .  S
C666        N667   1.362       .  A
C666        N671   1.360       .  A
N667        C668   1.360       .  A
C668       C1336   1.427       .  S
C668        N669   1.347       .  A
N669        C670   1.351       .  A
C670        N671   1.356       .  A
C670       C1181   1.471       .  S
C672       C1334   1.455       .  S
C672        N673   1.355       .  A
C672        N677   1.369       .  A
N673        C674   1.356       .  A
C674        N675   1.355       .  A
C674       C1202   1.467       .  S
N675        C676   1.357       .  A
C676       C1408   1.451       .  S
C676        N677   1.370       .  A
C678       C1410   1.450       .  S
C678        N679   1.367       .  A
C678        N683   1.356       .  A
N679        C680   1.368   1_554  A
C680       C1444   1.454       .  S
C680        N681   1.359       .  A
N681        C682   1.359   1_556  A
C682        N683   1.355       .  A
C682       C1177   1.474       .  S
C684       C1442   1.448       .  S
C684        N685   1.367       .  A
C684        N689   1.355       .  A
N685        C686   1.368   1_556  A
C686       C1412   1.451       .  S
C686        N687   1.358       .  A
N687        C688   1.358   1_554  A
C688        N689   1.354       .  A
C688       C1173   1.471       .  S
C690       C1339   1.443       .  S
C690        N691   1.368   1_455  A
C690        N695   1.356       .  A
N691        C692   1.366       .  A
C692       C1438   1.445       .  S
C692        N693   1.353       .  A
N693        C694   1.352       .  A
C694        N695   1.354   1_655  A
C694       C1169   1.459       .  S
C696       C1338   1.450       .  S
C696        N697   1.366       .  A
C696        N701   1.357       .  A
N697        C698   1.367   1_455  A
C698       C1440   1.452       .  S
C698        N699   1.359       .  A
N699        C700   1.359   1_655  A
C700        N701   1.356       .  A
C700       C1166   1.474       .  S
C702       C1436   1.439       .  S
C702        N703   1.351       .  A
C702        N707   1.365   1_565  A
N703        C704   1.354   1_565  A
C704        N705   1.354       .  A
C704       C1161   1.470       .  S
N705        C706   1.358       .  A
C706       C1386   1.442       .  S
C706        N707   1.366       .  A
C708       C1388   1.454       .  S
C708        N709   1.372   1_545  A
C708        N713   1.358       .  A
N709        C710   1.370       .  A
C710       C1434   1.451       .  S
C710        N711   1.351       .  A
N711        C712   1.351       .  A
C712        N713   1.355   1_565  A
C712       C1157   1.458       .  S
C714       C1362   1.486       .  S
C714        N715   1.357       .  A
C714        N719   1.383   1_556  A
N715        C716   1.358   1_556  A
C716        N717   1.356       .  A
C716       C1154   1.476       .  S
N717        C718   1.359       .  A
C718       C1152   1.478       .  S
C718        N719   1.384       .  A
C720       C1145   1.426       .  S
C720        N721   1.358       .  A
C720        N725   1.350       .  A
N721        C722   1.358       .  A
C722        N723   1.362   1_554  A
C722       C1147   1.475       .  S
N723        C724   1.361       .  A
C724       C1363   1.430       .  S
C724        N725   1.351   1_556  A
C726       C1319   1.443       .  S
C726        N727   1.354       .  A
C726        N731   1.368   1_545  A
N727        C728   1.353   1_545  A
C728        N729   1.354       .  A
C728       C1141   1.462       .  S
N729        C730   1.355       .  A
C730       C1422   1.447       .  S
C730        N731   1.367       .  A
C732       C1423   1.447       .  S
C732        N733   1.349       .  A
C732        N737   1.369   1_565  A
N733        C734   1.353   1_565  A
C734        N735   1.360       .  A
C734       C1137   1.477       .  S
N735        C736   1.362       .  A
C736       C1317   1.460       .  S
C736        N737   1.371       .  A
N738        C743   1.355       .  A
N738        C742   1.352       .  A
N738        H770   1.039   1_556  S
N739        C746   1.354       .  A
N739        C747   1.351       .  A
N740        C745   1.356       .  A
N740        C744   1.353       .  A
N740        H771   1.036       .  S
N741        C748   1.346       .  A
N741        C749   1.345       .  A
C742        C750   1.386       .  A
C742        C758   1.416   1_556  A
C743        C759   1.413       .  A
C743        C751   1.387       .  A
C744        C752   1.387       .  A
C744        C761   1.416   1_565  A
C745        C760   1.421       .  A
C745        C753   1.387       .  A
C746        C758   1.418       .  A
C746        C754   1.386       .  A
C747        C761   1.419       .  A
C747        C755   1.387       .  A
C748        C756   1.385       .  A
C748        C759   1.410   1_565  A
C749        C757   1.388       .  A
C749        C760   1.406   1_556  A
C750        C751   1.373       .  A
C750        H762   1.082       .  S
C751        H763   1.081       .  S
C752        C753   1.375       .  A
C752        H764   1.082       .  S
C753        H765   1.082       .  S
C754        C755   1.376       .  A
C754        H766   1.081       .  S
C755        H767   1.082       .  S
C756        C757   1.369       .  A
C756        H768   1.082       .  S
C757        H769   1.081       .  S
C758       C1153   1.509       .  S
C759       C1125   1.491       .  S
C760       C1130   1.488       .  S
C761       C1133   1.488       .  S
N772        C777   1.350       .  A
N772        C776   1.347       .  A
N772        H804   1.028       .  S
N773        C780   1.359       .  A
N773        C781   1.356       .  A
N774        C779   1.350       .  A
N774        C778   1.350       .  A
N774        H805   1.019       .  S
N775        C782   1.350       .  A
N775        C783   1.347       .  A
C776        C784   1.389       .  A
C776        C792   1.408   1_565  A
C777        C793   1.408   1_556  A
C777        C785   1.383       .  A
C778        C786   1.388       .  A
C778        C795   1.417       .  A
C779        C794   1.413   1_545  A
C779        C787   1.387       .  A
C780        C792   1.422       .  A
C780        C788   1.388       .  A
C781        C795   1.420   1_556  A
C781        C789   1.386       .  A
C782        C790   1.386       .  A
C782        C793   1.409       .  A
C783        C791   1.386       .  A
C783        C794   1.414       .  A
C784        C785   1.376       .  A
C784        H796   1.083       .  S
C785        H797   1.082       .  S
C786        C787   1.374       .  A
C786        H798   1.083       .  S
C787        H799   1.082       .  S
C788        C789   1.360       .  A
C788        H800   1.077       .  S
C789        H801   1.082       .  S
C790        C791   1.369       .  A
C790        H802   1.081       .  S
C791        H803   1.082       .  S
C792       C1162   1.488       .  S
C793       C1174   1.492       .  S
C794       C1142   1.491       .  S
C795       C1121   1.490       .  S
C806       C1321   1.455       .  S
C806        N807   1.354       .  A
C806        N811   1.373       .  A
N807        C808   1.352       .  A
C808        N809   1.356       .  A
C808       C1122   1.466       .  S
N809        C810   1.356       .  A
C810       C1395   1.458   1_554  S
C810        N811   1.374       .  A
C812       C1393   1.446       .  S
C812        N813   1.355       .  A
C812        N817   1.369   1_556  A
N813        C814   1.352   1_556  A
C814        N815   1.354       .  A
C814       C1117   1.465   1_554  S
N815        C816   1.353       .  A
C816       C1324   1.446       .  S
C816        N817   1.369       .  A
C818       C1291   1.420       .  S
C818        N819   1.355       .  A
C818        N823   1.351       .  A
N819        C820   1.355   1_565  A
C820        N821   1.355       .  A
C820       C1134   1.464       .  S
N821        C822   1.357       .  A
C822       C1116   1.421       .  S
C822        N823   1.351   1_545  A
C824       C1110   1.497       .  S
C824        N825   1.393   1_545  A
C824        N829   1.352       .  A
N825        C826   1.395       .  A
C826       C1289   1.502       .  S
C826        N827   1.362       .  A
N827        C828   1.360       .  A
C828        N829   1.353   1_565  A
C828       C1112   1.475       .  S
C830       C1419   1.444       .  S
C830        N831   1.351       .  A
C830        N835   1.368   1_655  A
N831        C832   1.353   1_655  A
C832        N833   1.358       .  A
C832       C1105   1.475       .  S
N833        C834   1.360       .  A
C834       C1293   1.454       .  S
C834        N835   1.369       .  A
C836       C1417   1.448       .  S
C836        N837   1.369       .  A
C836        N841   1.354       .  A
N837        C838   1.370   1_655  A
C838       C1296   1.447       .  S
C838        N839   1.353       .  A
N839        C840   1.354   1_455  A
C840        N841   1.352       .  A
C840       C1101   1.465       .  S
N842        C847   1.356       .  A
N842        C846   1.358       .  A
N842        H874   1.043       .  S
N843        C850   1.349       .  A
N843        C851   1.353       .  A
N844        C849   1.351       .  A
N844        C848   1.350       .  A
N844        H875   1.035   1_556  S
N845        C852   1.344       .  A
N845        C853   1.344       .  A
C846        C854   1.389       .  A
C846        C862   1.422       .  A
C847        C863   1.414       .  A
C847        C855   1.385       .  A
C848        C856   1.387       .  A
C848        C865   1.414   1_556  A
C849        C864   1.416   1_455  A
C849        C857   1.385       .  A
C850        C862   1.411   1_455  A
C850        C858   1.385       .  A
C851        C865   1.417       .  A
C851        C859   1.387       .  A
C852        C860   1.388       .  A
C852        C863   1.407   1_556  A
C853        C861   1.385       .  A
C853        C864   1.403       .  A
C854        C855   1.366       .  A
C854        H866   1.080       .  S
C855        H867   1.082       .  S
C856        C857   1.375       .  A
C856        H868   1.080       .  S
C857        H869   1.082       .  S
C858        C859   1.379       .  A
C858        H870   1.082       .  S
C859        H871   1.082       .  S
C860        C861   1.375       .  A
C860        H872   1.082       .  S
C861        H873   1.082       .  S
C862       C1098   1.498   1_655  S
C863       C1118   1.484       .  S
C864       C1094   1.492       .  S
C865       C1148   1.485       .  S
N876        C881   1.354       .  A
N876        C880   1.351       .  A
N876        H908   1.036       .  S
N877        C884   1.349       .  A
N877        C885   1.348       .  A
N878        C883   1.358       .  A
N878        C882   1.354       .  A
N878        H909   1.043       .  S
N879        C886   1.348       .  A
N879        C887   1.347       .  A
C880        C888   1.386       .  A
C880        C896   1.418       .  A
C881        C897   1.415   1_556  A
C881        C889   1.388       .  A
C882        C890   1.384       .  A
C882        C899   1.411   1_554  A
C883        C898   1.421       .  A
C883        C891   1.389       .  A
C884        C896   1.407   1_455  A
C884        C892   1.386       .  A
C885        C899   1.407       .  A
C885        C893   1.385       .  A
C886        C894   1.384       .  A
C886        C897   1.409       .  A
C887        C895   1.388       .  A
C887        C898   1.408   1_655  A
C888        C889   1.369       .  A
C888        H900   1.082       .  S
C889        H901   1.080       .  S
C890        C891   1.361       .  A
C890        H902   1.081       .  S
C891        H903   1.078       .  S
C892        C893   1.374       .  A
C892        H904   1.082       .  S
C893        H905   1.082       .  S
C894        C895   1.375       .  A
C894        H906   1.082       .  S
C895        H907   1.082       .  S
C896       C1170   1.493       .  S
C897       C1178   1.495       .  S
C898       C1106   1.494       .  S
C899       C1089   1.484       .  S
C910       C1298   1.444       .  S
C910        N911   1.350       .  A
C910        N915   1.366       .  A
N911        C912   1.349       .  A
C912        N913   1.361   1_554  A
C912       C1129   1.465       .  S
N913        C914   1.362       .  A
C914       C1348   1.455       .  S
C914        N915   1.369   1_556  A
C916       C1346   1.446       .  S
C916        N917   1.368       .  A
C916        N921   1.354       .  A
N917        C918   1.369   1_556  A
C918       C1300   1.453       .  S
C918        N919   1.357   1_554  A
N919        C920   1.358       .  A
C920        N921   1.352       .  A
C920       C1090   1.470       .  S
C922       C1088   1.482       .  S
C922        N923   1.385   1_455  A
C922        N927   1.356       .  A
N923        C924   1.385       .  A
C924       C1314   1.486       .  S
C924        N925   1.359       .  A
N925        C926   1.358       .  A
C926        N927   1.356   1_655  A
C926       C1097   1.480       .  S
C928       C1081   1.418       .  S
C928        N929   1.350   1_455  A
C928        N933   1.351       .  A
N929        C930   1.353       .  A
C930       C1315   1.426       .  S
C930        N931   1.359       .  A
N931        C932   1.360       .  A
C932        N933   1.355   1_655  A
C932       C1083   1.472   1_655  S
C934       C1400   1.450       .  S
C934        N935   1.357       .  A
C934        N939   1.369       .  A
N935        C936   1.357   1_655  A
C936        N937   1.354       .  A
C936       C1093   1.468       .  S
N937        C938   1.354       .  A
C938       C1370   1.451       .  S
C938        N939   1.368   1_455  A
C940       C1398   1.456       .  S
C940        N941   1.369       .  A
C940        N945   1.363       .  A
N941        C942   1.367   1_655  A
C942       C1372   1.448       .  S
C942        N943   1.350   1_455  A
N943        C944   1.352       .  A
C944        N945   1.361       .  A
C944       C1077   1.473       .  S
N946        C951   1.354       .  A
N946        C950   1.357       .  A
N946        H978   1.040       .  S
N947        C954   1.346   1_545  A
N947        C955   1.349       .  A
N948        C953   1.352       .  A
N948        C952   1.346       .  A
N948        H979   1.045       .  S
N949        C956   1.347       .  A
N949        C957   1.350       .  A
C950        C958   1.387       .  A
C950        C966   1.417       .  A
C951        C967   1.420       .  A
C951        C959   1.390       .  A
C952        C960   1.385       .  A
C952        C969   1.406   1_655  A
C953        C968   1.408   1_545  A
C953        C961   1.388       .  A
C954        C966   1.411       .  A
C954        C962   1.386   1_565  A
C955        C969   1.406       .  A
C955        C963   1.386       .  A
C956        C964   1.388       .  A
C956        C967   1.412   1_655  A
C957        C965   1.383       .  A
C957        C968   1.405       .  A
C958        C959   1.371       .  A
C958        H970   1.081       .  S
C959        H971   1.081       .  S
C960        C961   1.368       .  A
C960        H972   1.082       .  S
C961        H973   1.081       .  S
C962        C963   1.378       .  A
C962        H974   1.082       .  S
C963        H975   1.082       .  S
C964        C965   1.376       .  A
C964        H976   1.082       .  S
C965        H977   1.082       .  S
C966       C1111   1.499       .  S
C967       C1102   1.491       .  S
C968       C1138   1.492       .  S
C969       C1084   1.487       .  S
N980        C985   1.355       .  A
N980        C984   1.351       .  A
N980       H1012   1.040       .  S
N981        C988   1.347       .  A
N981        C989   1.348       .  A
N982        C987   1.356       .  A
N982        C986   1.354   1_455  A
N982       H1013   1.044   1_455  S
N983        C990   1.349       .  A
N983        C991   1.348       .  A
C984        C992   1.386       .  A
C984       C1000   1.417       .  A
C985       C1001   1.415       .  A
C985        C993   1.389       .  A
C986        C994   1.387   1_655  A
C986       C1003   1.417       .  A
C987       C1002   1.417       .  A
C987        C995   1.387       .  A
C988       C1000   1.402   1_545  A
C988        C996   1.387       .  A
C989       C1003   1.403       .  A
C989        C997   1.384       .  A
C990        C998   1.383       .  A
C990       C1001   1.407   1_455  A
C991        C999   1.388       .  A
C991       C1002   1.408   1_565  A
C992        C993   1.370       .  A
C992       H1004   1.082       .  S
C993       H1005   1.080       .  S
C994        C995   1.369       .  A
C994       H1006   1.080   1_455  S
C995       H1007   1.080       .  S
C996        C997   1.374       .  A
C996       H1008   1.082       .  S
C997       H1009   1.082       .  S
C998        C999   1.374       .  A
C998       H1010   1.082       .  S
C999       H1011   1.082       .  S
C1000      C1158   1.491       .  S
C1001      C1165   1.496       .  S
C1002      C1073   1.493       .  S
C1003      C1078   1.491       .  S
C1014      C1368   1.447       .  S
C1014      N1015   1.353       .  A
C1014      N1019   1.369       .  A
N1015      C1016   1.354   1_545  A
C1016      N1017   1.355       .  A
C1016      C1126   1.468       .  S
N1017      C1018   1.357       .  A
C1018      C1350   1.452       .  S
C1018      N1019   1.369   1_565  A
C1020      C1351   1.454       .  S
C1020      N1021   1.352   1_565  A
C1020      N1025   1.371   1_565  A
N1021      C1022   1.355       .  A
C1022      N1023   1.356       .  A
C1022      C1074   1.477       .  S
N1023      C1024   1.359       .  A
C1024      C1366   1.457       .  S
C1024      N1025   1.372       .  A
O1026      C1053   1.273       .  A
O1026     Mn1052   2.107       .  S
C1027      O1060   1.275       .  A
C1027      O1057   1.264       .  A
C1027      C1115   1.419       .  S
O1028     Mn1035   2.157       .  S
O1028     Mn1046   2.137       .  S
O1028     Mn1050   2.158       .  S
O1028     Mn1052   2.136       .  S
O1029      C1039   1.267       .  A
O1029     Mn1063   2.064       .  S
O1030      C1053   1.262       .  A
O1030     Mn1046   2.044       .  S
O1031      C1058   1.267       .  A
O1031     Mn1050   2.158       .  S
O1032     Mn1063   2.025       .  S
O1032     Mn1052   1.972       .  S
O1032      C1048   1.235       .  S
C1033      O1036   1.268       .  A
C1033      C1278   1.499       .  S
C1033      O1059   1.233       .  S
O1034     Mn1054   2.130       .  S
O1034     Mn1035   2.164       .  S
O1034     Mn1068   2.137       .  S
O1034     Mn1050   2.158       .  S
Mn1035     O1064   2.155       .  S
Mn1035     O1040   2.152       .  S
Mn1035     O1067   2.167       .  S
Mn1035     O1041   2.153       .  S
O1036     Mn1050   2.159       .  S
O1037      C1039   1.268       .  A
O1037     Mn1044   2.084       .  S
C1038      O1064   1.266       .  A
C1038      C1151   1.480       .  S
C1038      O1051   1.225       .  S
C1039      C1283   1.410       .  S
O1040      C1065   1.266       .  A
O1041     Mn1044   2.133       .  S
O1041     Mn1063   2.135       .  S
O1041     Mn1050   2.156       .  S
O1042     Mn1046   1.945       .  S
O1042     Mn1068   1.993       .  S
O1042      C1065   1.228       .  S
C1043      O1069   1.263       .  A
C1043      O1045   1.269       .  A
C1043      C1266   1.404       .  S
Mn1044     O1057   2.057       .  S
Mn1044     O1059   1.957       .  S
Mn1044     O1051   1.989       .  S
O1045     Mn1068   2.087       .  S
Mn1046     O1062   2.089       .  S
Mn1046     O1056   2.000       .  S
O1047      C1049   1.269       .  A
O1047     Mn1052   2.071       .  S
C1048      O1066   1.267       .  A
C1048      C1196   1.502       .  S
C1049      O1062   1.269       .  A
C1049      C1082   1.415       .  S
Mn1050     O1066   2.156       .  S
O1051     Mn1054   1.944       .  S
Mn1052     O1070   2.013       .  S
C1053      C1190   1.412       .  S
Mn1054     O1061   2.116       .  S
Mn1054     O1069   2.046       .  S
Mn1054     O1059   2.014       .  S
C1055      O1061   1.274       .  A
C1055      O1071   1.263       .  A
C1055      C1146   1.424       .  S
O1056     Mn1068   1.954       .  S
O1056      C1058   1.233       .  S
C1058      C1271   1.499       .  S
O1060     Mn1063   2.117       .  S
Mn1063     O1070   1.951       .  S
C1065      C1087   1.485       .  S
O1067      C1072   1.269       .  A
Mn1068     O1071   2.059       .  S
O1070      C1072   1.232       .  S
C1072      C1109   1.503       .  S
C1073      C1074   1.345       .  D
C1073      H1075   1.087   1_545  S
C1074      H1076   1.086       .  S
C1077      C1078   1.340       .  D
C1077      H1079   1.088       .  S
C1078      H1080   1.087       .  S
C1081      C1082   1.195       .  T
C1083      C1084   1.349       .  D
C1083      H1085   1.088   1_455  S
C1084      H1086   1.087       .  S
C1087      C1088   1.235       .  T
C1089      C1090   1.342       .  D
C1089      H1091   1.087       .  S
C1090      H1092   1.087       .  S
C1093      C1094   1.347   1_455  D
C1093      H1095   1.085       .  S
C1094      H1096   1.086       .  S
C1097      C1098   1.348   1_655  D
C1097      H1099   1.087       .  S
C1098      H1100   1.087       .  S
C1101      C1102   1.345   1_655  D
C1101      H1103   1.085       .  S
C1102      H1104   1.086       .  S
C1105      C1106   1.345       .  D
C1105      H1107   1.086       .  S
C1106      H1108   1.088   1_455  S
C1109      C1110   1.246       .  T
C1111      C1112   1.346       .  D
C1111      H1113   1.085       .  S
C1112      H1114   1.086   1_565  S
C1115      C1116   1.197       .  T
C1117      C1118   1.344   1_556  D
C1117      H1119   1.086       .  S
C1118      H1120   1.087       .  S
C1121      C1122   1.344       .  D
C1121      H1123   1.087       .  S
C1122      H1124   1.086       .  S
C1125      C1126   1.348   1_545  D
C1125      H1127   1.085       .  S
C1126      H1128   1.086       .  S
C1129      C1130   1.341       .  D
C1129      H1131   1.087       .  S
C1130      H1132   1.086   1_554  S
C1133      C1134   1.339       .  D
C1133      H1135   1.082       .  S
C1134      H1136   1.086       .  S
C1137      C1138   1.350   1_545  D
C1137      H1139   1.086       .  S
C1138      H1140   1.087       .  S
C1141      C1142   1.348       .  D
C1141      H1143   1.086       .  S
C1142      H1144   1.085   1_565  S
C1145      C1146   1.200       .  T
C1147      C1148   1.346       .  D
C1147      H1149   1.086       .  S
C1148      H1150   1.086       .  S
C1151      C1152   1.233       .  T
C1153      C1154   1.354       .  D
C1153      H1155   1.084       .  S
C1154      H1156   1.084   1_554  S
C1157      C1158   1.346       .  D
C1157      H1159   1.086       .  S
C1158      H1160   1.086   1_565  S
C1161      C1162   1.340       .  D
C1161      H1163   1.085       .  S
C1162      H1164   1.089   1_545  S
C1165      C1166   1.348   1_655  D
C1165      H1167   1.085       .  S
C1166      H1168   1.086       .  S
C1169      C1170   1.347       .  D
C1169      H1171   1.086       .  S
C1170      H1172   1.086   1_655  S
C1173      C1174   1.346   1_556  D
C1173      H1175   1.086       .  S
C1174      H1176   1.085       .  S
C1177      C1178   1.347       .  D
C1177      H1179   1.086       .  S
C1178      H1180   1.085   1_554  S
C1181      C1182   1.345       .  D
C1181      H1183   1.086       .  S
C1182      H1184   1.087       .  S
C1185      C1186   1.353       .  D
C1185      H1187   1.085       .  S
C1186      H1188   1.084       .  S
C1189      C1190   1.193       .  T
C1191      C1192   1.340       .  D
C1191      H1193   1.085       .  S
C1192      H1194   1.087       .  S
C1195      C1196   1.245       .  T
C1197      C1198   1.346       .  D
C1197      H1199   1.086       .  S
C1198      H1200   1.086       .  S
C1201      C1202   1.349       .  D
C1201      H1203   1.086       .  S
C1202      H1204   1.085       .  S
C1205      C1206   1.346       .  D
C1205      H1207   1.087       .  S
C1206      H1208   1.086       .  S
C1209      C1210   1.348       .  D
C1209      H1211   1.086       .  S
C1210      H1212   1.084       .  S
C1213      C1214   1.348       .  D
C1213      H1215   1.086       .  S
C1214      H1216   1.085       .  S
C1217      C1218   1.347       .  D
C1217      H1219   1.086       .  S
C1218      H1220   1.087       .  S
C1221      C1222   1.351       .  D
C1221      H1223   1.085       .  S
C1222      H1224   1.086       .  S
C1225      C1226   1.340       .  D
C1225      H1227   1.088       .  S
C1226      H1228   1.087       .  S
C1229      C1230   1.346       .  D
C1229      H1231   1.087       .  S
C1230      H1232   1.087       .  S
C1233      C1234   1.345       .  D
C1233      H1235   1.087       .  S
C1234      H1236   1.084       .  S
C1237      C1238   1.354       .  D
C1237      H1239   1.086       .  S
C1238      H1240   1.084       .  S
C1241      C1242   1.348       .  D
C1241      H1243   1.086       .  S
C1242      H1244   1.086       .  S
C1245      C1246   1.345       .  D
C1245      H1247   1.085       .  S
C1246      H1248   1.085       .  S
C1249      C1250   1.343       .  D
C1249      H1251   1.084       .  S
C1250      H1252   1.086       .  S
C1253      C1254   1.346       .  D
C1253      H1255   1.087       .  S
C1254      H1256   1.086       .  S
C1257      C1258   1.337       .  D
C1257      H1259   1.085       .  S
C1258      H1260   1.089       .  S
C1261      C1262   1.338       .  D
C1261      H1263   1.087       .  S
C1262      H1264   1.087       .  S
C1265      C1266   1.187       .  T
C1267      C1268   1.340       .  D
C1267      H1269   1.088       .  S
C1268      H1270   1.086       .  S
C1271      C1272   1.243       .  T
C1273      C1274   1.352       .  D
C1273      H1275   1.086       .  S
C1274      H1276   1.086       .  S
C1277      C1278   1.243       .  T
C1279      C1280   1.349       .  D
C1279      H1281   1.086       .  S
C1280      H1282   1.086       .  S
C1283      C1284   1.192       .  T
C1285      C1286   1.342       .  D
C1285      H1287   1.088       .  S
C1286      H1288   1.086       .  S
C1289      C1290   1.247       .  T
C1291      C1292   1.197       .  T
C1293      C1294   1.217       .  T
C1295      C1296   1.213       .  T
C1297      C1298   1.212       .  T
C1299      C1300   1.217       .  T
C1301      C1302   1.219       .  T
C1303      C1304   1.214       .  T
C1305      C1306   1.244       .  T
C1307      C1308   1.198       .  T
C1309      C1310   1.222       .  T
C1311      C1312   1.210       .  T
C1313      C1314   1.237       .  T
C1315      C1316   1.200       .  T
C1317      C1318   1.220       .  T
C1319      C1320   1.211       .  T
C1321      C1322   1.218       .  T
C1323      C1324   1.213       .  T
C1325      C1326   1.243       .  T
C1327      C1328   1.197       .  T
C1329      C1330   1.223       .  T
C1331      C1332   1.212       .  T
C1333      C1334   1.218       .  T
C1335      C1336   1.202       .  T
C1337      C1338   1.215       .  T
C1339      C1340   1.211       .  T
C1341      C1342   1.215       .  T
C1343      C1344   1.211       .  T
C1345      C1346   1.213       .  T
C1347      C1348   1.217       .  T
C1349      C1350   1.216       .  T
C1351      C1352   1.218       .  T
C1353      C1354   1.212       .  T
C1355      C1356   1.223       .  T
C1357      C1358   1.213       .  T
C1359      C1360   1.221       .  T
C1361      C1362   1.237       .  T
C1363      C1364   1.203       .  T
C1365      C1366   1.219       .  T
C1367      C1368   1.213       .  T
C1369      C1370   1.216       .  T
C1371      C1372   1.214       .  T
C1373      C1374   1.219       .  T
C1375      C1376   1.212       .  T
C1377      C1378   1.222       .  T
C1379      C1380   1.214       .  T
C1381      C1382   1.246       .  T
C1383      C1384   1.185       .  T
C1385      C1386   1.210       .  T
C1387      C1388   1.217       .  T
C1389      C1390   1.217       .  T
C1391      C1392   1.217       .  T
C1393      C1394   1.213       .  T
C1395      C1396   1.220       .  T
C1397      C1398   1.218       .  T
C1399      C1400   1.215       .  T
C1401      C1402   1.213       .  T
C1403      C1404   1.224       .  T
C1405      C1406   1.206       .  T
C1407      C1408   1.216       .  T
C1409      C1410   1.215       .  T
C1411      C1412   1.215       .  T
C1413      C1414   1.217       .  T
C1415      C1416   1.210       .  T
C1417      C1418   1.214       .  T
C1419      C1420   1.212       .  T
C1421      C1422   1.213       .  T
C1423      C1424   1.214       .  T
C1425      C1426   1.214       .  T
C1427      C1428   1.218       .  T
C1429      C1430   1.212       .  T
C1431      C1432   1.213       .  T
C1433      C1434   1.216       .  T
C1435      C1436   1.209       .  T
C1437      C1438   1.212       .  T
C1439      C1440   1.216       .  T
C1441      C1442   1.214       .  T
C1443      C1444   1.217       .  T
C1445      C1446   1.213       .  T
C1447      C1448   1.213       .  T
C1449      C1450   1.211       .  T
C1451      C1452   1.213       .  T
C1453      C1454   1.213       .  T
C1455      C1456   1.215       .  T
