geometry optimzed in LAMMPS
_audit_creation_date              2020-11-30 
_audit_creation_method            'lammps2cif' 
_symmetry_space_group_name_H-M    'P1' 
_symmetry_Int_Tables_number       1 
_symmetry_cell_setting            triclinic 
loop_ 
_symmetry_equiv_pos_as_xyz 
  x,y,z 
_cell_length_a                    55.59447939 
_cell_length_b                    55.6324313769684 
_cell_length_c                    55.657493942866346 
_cell_angle_alpha                 89.8972278878652 
_cell_angle_beta                  89.89232801189146 
_cell_angle_gamma                 89.92632192946947 
loop_ 
_atom_site_label 
_atom_site_type_symbol 
_atom_site_fract_x 
_atom_site_fract_y 
_atom_site_fract_z 
_atom_site_charge 
C1          C  0.15413506  0.78185051  0.97498077     0.80300
N2          N  0.13119104  0.79010288  0.97490565    -0.78000
C3          C  0.12102362  0.79813489  0.99552242     0.82800
N4          N  0.13364795  0.79678810  0.01625495    -0.77900
C5          C  0.15646008  0.78829210  0.01676343     0.82900
N6          N  0.16666914  0.78073730  0.99586377    -0.79600
C7          C  0.33991472  0.60661971  0.01959186     0.80300
N8          N  0.34137803  0.58220735  0.01982011    -0.78000
C9          C  0.34409065  0.56976073  0.99892168     0.82800
N10         N  0.34441996  0.58193978  0.97768797    -0.77900
C11         C  0.34268525  0.60631707  0.97730936     0.82900
N12         N  0.34017359  0.61842786  0.99827828    -0.79600
C13         C  0.90950793  0.23094685  0.01961328     0.80300
N14         N  0.93195032  0.24036932  0.01786700    -0.78000
C15         C  0.94282360  0.24215304  0.99605845     0.82800
N16         N  0.93120332  0.23450704  0.97606542    -0.77900
C17         C  0.90850017  0.22571999  0.97769294     0.82900
N18         N  0.89792421  0.22387740  0.99949891    -0.79600
C19         C  0.72689108  0.33337099  0.97984951     0.80300
N20         N  0.72643026  0.35773540  0.97910480    -0.78000
C21         C  0.72638617  0.37074823  0.99967555     0.82800
N22         N  0.72657740  0.35921113  0.02120036    -0.77900
C23         C  0.72725144  0.33481113  0.02217960     0.82900
N24         N  0.72780291  0.32196601  0.00142492    -0.79600
C25         C  0.84340326  0.94366159  0.12570957     0.80300
N26         N  0.85146418  0.94197195  0.10280929    -0.78000
C27         C  0.85688539  0.96195532  0.08994813     0.82800
N28         N  0.85454311  0.98390799  0.10054576    -0.77900
C29         C  0.84711524  0.98577835  0.12377336     0.82900
N30         N  0.84119100  0.96556937  0.13605554    -0.79600
C31         C  0.65514737  0.98300109  0.31037227     0.80300
N32         N  0.63090866  0.98295645  0.31290112    -0.78000
C33         C  0.61841789  0.96209030  0.31403960     0.82800
N34         N  0.63046584  0.94084377  0.31309677    -0.77900
C35         C  0.65489029  0.94047466  0.31122481     0.82900
N36         N  0.66705011  0.96163877  0.30961343    -0.79600
C37         C  0.22459762  0.99341587  0.87275177     0.80300
N38         N  0.22796071  0.97169690  0.86233847    -0.78000
C39         C  0.22413530  0.95121136  0.87493026     0.82800
N40         N  0.21695805  0.95230379  0.89813546    -0.77900
C41         C  0.21336545  0.97387107  0.90882439     0.82900
N42         N  0.21748998  0.99424412  0.89610211    -0.79600
C43         C  0.38951170  0.95306259  0.67911724     0.80300
N44         N  0.41387196  0.95228004  0.67859067    -0.78000
C45         C  0.42695964  0.97280146  0.67838364     0.82800
N46         N  0.41532325  0.99425364  0.67912144    -0.77900
C47         C  0.39091144  0.99541035  0.67994306     0.82900
N48         N  0.37812266  0.97462309  0.68030596    -0.79600
C49         C  0.90902841  0.77959335  0.02142038     0.80300
N50         N  0.93229677  0.78698964  0.02020052    -0.78000
C51         C  0.94316681  0.78991227  0.99853619     0.82800
N52         N  0.93097048  0.78486689  0.97811437    -0.77900
C53         C  0.90777900  0.77760268  0.97919035     0.82900
N54         N  0.89690842  0.77474357  0.00083336    -0.79600
C55         C  0.72430885  0.58844030  0.01973639     0.80300
N56         N  0.72525309  0.60081904  0.99868856    -0.78000
C57         C  0.72593964  0.58909121  0.97733260     0.82800
N58         N  0.72546623  0.56471102  0.97710984    -0.77900
C59         C  0.72439649  0.55201298  0.99794303     0.82900
N60         N  0.72416354  0.56398896  0.01922928    -0.79600
C61         C  0.15535764  0.27651435  0.97913894     0.80300
N62         N  0.13095843  0.27786503  0.97888310    -0.78000
C63         C  0.11843780  0.28038203  0.99969455     0.82800
N64         N  0.13052910  0.28176240  0.02074695    -0.77900
C65         C  0.15483030  0.28057897  0.02125722     0.82900
N66         N  0.16714619  0.27769367  0.00041094    -0.79600
C67         C  0.31227273  0.35325723  0.97703521     0.80300
N68         N  0.31248604  0.34131443  0.99833636    -0.78000
C69         C  0.31574117  0.35343271  0.01918468     0.82800
N70         N  0.31939209  0.37750579  0.01861137    -0.77900
C71         C  0.31967090  0.38971442  0.99751460     0.82900
N72         N  0.31602708  0.37747222  0.97669251    -0.79600
C73         C  0.85203339  0.94889351  0.87641813     0.80300
N74         N  0.85869885  0.94895360  0.89982471    -0.78000
C75         C  0.86262725  0.96999946  0.91137912     0.82800
N76         N  0.85941767  0.99110575  0.89949767    -0.77900
C77         C  0.85251059  0.99138642  0.87607499     0.82900
N78         N  0.84860355  0.97008604  0.86480910    -0.79600
C79         C  0.64351984  0.99147737  0.69640143     0.80300
N80         N  0.61940549  0.99099727  0.69317897    -0.78000
C81         C  0.60724277  0.96993404  0.69379921     0.82800
N82         N  0.61936354  0.94912336  0.69791279    -0.77900
C83         C  0.64361270  0.94921866  0.70105453     0.82900
N84         N  0.65554005  0.97054994  0.70011843    -0.79600
C85         C  0.23677857  0.00677953  0.11995035     0.80300
N86         N  0.22739149  0.00708840  0.09746007    -0.78000
C87         C  0.22036710  0.98646954  0.08664450     0.82800
N88         N  0.22329785  0.96521160  0.09815285    -0.77900
C89         C  0.23256907  0.96433103  0.12061708     0.82900
N90         N  0.23929469  0.98527417  0.13128738    -0.79600
C91         C  0.40037344  0.96084133  0.30416083     0.80300
N92         N  0.38961336  0.98277810  0.30246243    -0.78000
C93         C  0.40303151  0.00325814  0.30318206     0.82800
N94         N  0.42728165  0.00151833  0.30596794    -0.77900
C95         C  0.43814641  0.97974759  0.30798351     0.82900
N96         N  0.42459489  0.95955859  0.30696426    -0.79600
C97         C  0.00773344  0.08682043  0.80137202     0.80300
N98         N  0.02818228  0.09958979  0.79766080    -0.78000
C99         C  0.04986851  0.09101653  0.80471562     0.82800
N100        N  0.05109442  0.06918556  0.81526349    -0.77900
C101        C  0.03097589  0.05615250  0.81919937     0.82900
N102        N  0.00927071  0.06499921  0.81230878    -0.79600
C103        C  0.00429418  0.28926780  0.62427170     0.80300
N104        N  0.02553733  0.28808588  0.63623547    -0.78000
C105        C  0.04658741  0.29308262  0.62479511     0.82800
N106        N  0.04607489  0.29907255  0.60113014    -0.77900
C107        C  0.02492160  0.30075281  0.58903446     0.82900
N108        N  0.00415550  0.29566862  0.60075463    -0.79600
C109        C  0.04579579  0.84606382  0.81101160     0.80300
N110        N  0.04722526  0.86830221  0.82092636    -0.78000
C111        C  0.02692686  0.88030435  0.82739956     0.82800
N112        N  0.00519445  0.86998750  0.82332855    -0.77900
C113        C  0.00367199  0.84790556  0.81331995     0.82900
N114        N  0.02397788  0.83607694  0.80680473    -0.79600
C115        C  0.00174198  0.66356140  0.62354140     0.80300
N116        N  0.00268251  0.65949736  0.59952083    -0.78000
C117        C  0.02409875  0.65811231  0.58788983     0.82800
N118        N  0.04477186  0.66157728  0.60025669    -0.77900
C119        C  0.04416093  0.66618223  0.62415841     0.82900
N120        N  0.02265710  0.66702769  0.63572173    -0.79600
C121        C  0.04864653  0.85245633  0.19227892     0.80300
N122        N  0.02804203  0.84034582  0.19710150    -0.78000
C123        C  0.00632143  0.85076797  0.19329540     0.82800
N124        N  0.00515107  0.87362670  0.18491298    -0.77900
C125        C  0.02562708  0.88611761  0.18047682     0.82900
N126        N  0.04728036  0.87544277  0.18417338    -0.79600
C127        C  0.05128285  0.66885337  0.37195209     0.80300
N128        N  0.05156624  0.66436917  0.39593026    -0.78000
C129        C  0.03083533  0.65981190  0.40798747     0.82800
N130        N  0.00969745  0.66024331  0.39593762    -0.77900
C131        C  0.00900722  0.66478503  0.37201936     0.82900
N132        N  0.02996432  0.66878768  0.35997351    -0.79600
C133        C  0.01257284  0.09406652  0.19465067     0.80300
N134        N  0.03219770  0.10756459  0.19963346    -0.78000
C135        C  0.05466653  0.09869753  0.19589649     0.82800
N136        N  0.05724465  0.07616693  0.18678379    -0.77900
C137        C  0.03760200  0.06263664  0.18160802     0.82900
N138        N  0.01533739  0.07167377  0.18569399    -0.79600
C139        C  0.04862149  0.29541036  0.37244902     0.80300
N140        N  0.02765337  0.29302896  0.36016401    -0.78000
C141        C  0.00612438  0.29493719  0.37166621     0.82800
N142        N  0.00578215  0.29860948  0.39576407    -0.77900
C143        C  0.02654590  0.30114012  0.40824805     0.82900
N144        N  0.04784495  0.29929592  0.39651584    -0.79600
C145        C  0.25137288  0.50358606  0.37512606     0.80300
N146        N  0.25775760  0.48123336  0.36771283    -0.78000
C147        C  0.25192817  0.46159010  0.38104806     0.82800
N148        N  0.24011653  0.46452160  0.40222879    -0.77900
C149        C  0.23368491  0.48679483  0.40989899     0.82900
N150        N  0.23961634  0.50624789  0.39635754    -0.79600
C151        C  0.15366000  0.46342579  0.19597812     0.80300
N152        N  0.16394877  0.48542712  0.19776523    -0.78000
C153        C  0.15055059  0.50569571  0.19532759     0.82800
N154        N  0.12651567  0.50390523  0.19128108    -0.77900
C155        C  0.11599851  0.48195923  0.18919657     0.82900
N156        N  0.12966783  0.46188628  0.19166801    -0.79600
O157        O  0.25791663  0.75022011  0.17354942    -0.86400
O158        O  0.22574663  0.70364252  0.29762794    -0.86500
O159        O  0.22468145  0.68289991  0.21811043    -0.88200
O160        O  0.20464396  0.75652428  0.23449614    -0.87000
O161        O  0.22366445  0.78933232  0.25091562    -0.86600
O162        O  0.25975743  0.66122214  0.21935517    -0.87900
O163        O  0.20505327  0.70978111  0.26253274    -0.86400
O164        O  0.22377024  0.73367099  0.18995085    -0.86000
Zr165      Zr  0.23315582  0.72364502  0.23167036     2.84300
O166        O  0.24335389  0.74277811  0.26758539    -1.08000
O167        O  0.26796076  0.71424487  0.20987714    -1.08700
C168        C  0.23562316  0.74394525  0.17277444     1.06700
C169        C  0.20641825  0.70342276  0.28485488     1.06700
C170        C  0.23681987  0.66319138  0.21614217     1.09700
C171        C  0.20539894  0.77860992  0.24141268     1.07400
H172        H  0.24760034  0.68328368  0.25868127     0.33000
O173        O  0.25654919  0.69762056  0.25477066    -1.28900
H174        H  0.24567012  0.76910488  0.21416378     0.32700
O175        O  0.25531110  0.75840118  0.22381351    -1.30600
O176        O  0.29796936  0.71745526  0.32084444    -0.86400
O177        O  0.33211239  0.76009924  0.19595463    -0.87900
O178        O  0.28896749  0.65673451  0.26285792    -0.86500
O179        O  0.24915640  0.78291298  0.29923361    -0.86500
O180        O  0.26729953  0.80864616  0.22856762    -0.86200
O181        O  0.30297135  0.68307586  0.19091889    -0.86000
O182        O  0.35228925  0.70965412  0.25842391    -0.86400
O183        O  0.33209518  0.78225214  0.27635824    -0.85900
O184        O  0.33314779  0.67752529  0.24090725    -0.86900
O185        O  0.29684425  0.80377385  0.27563320    -0.86100
O186        O  0.27436453  0.67363022  0.29762687    -0.86500
O187        O  0.30145983  0.71994548  0.17243928    -0.86200
O188        O  0.28279664  0.79194702  0.19424246    -0.85800
O189        O  0.25089259  0.74647152  0.31845903    -0.86300
O190        O  0.33215646  0.73208149  0.30337540    -0.86600
O191        O  0.35208513  0.75543482  0.23167874    -0.87900
Zr192      Zr  0.26685309  0.71660829  0.29059355     2.83100
Zr193      Zr  0.29016435  0.74937501  0.20255939     2.83500
Zr194      Zr  0.29140846  0.68824726  0.23301965     2.84100
Zr195      Zr  0.26528590  0.77778111  0.25935751     2.83400
Zr196      Zr  0.32333631  0.74200320  0.26161790     2.84200
O197        O  0.30065004  0.76874526  0.23831011    -1.08500
O198        O  0.30169760  0.70686024  0.26928512    -1.08000
C199        C  0.32030085  0.72365302  0.32147210     1.06700
C200        C  0.35132618  0.75997447  0.20895168     1.09300
C201        C  0.28232157  0.65572844  0.28502071     1.06900
C202        C  0.24625772  0.76923830  0.31767595     1.07200
C203        C  0.27370761  0.80961981  0.20628849     1.06800
C204        C  0.30457572  0.69697907  0.17232572     1.06400
C205        C  0.35159806  0.68799364  0.25027984     1.06800
C206        C  0.31969810  0.80164760  0.27947624     1.06300
H207        H  0.32779693  0.71846877  0.21650091     0.33000
O208        O  0.31354328  0.72299274  0.22531982    -1.29600
H209        H  0.29278178  0.75982046  0.29786315     0.33000
O210        O  0.28856268  0.75194143  0.28301138    -1.30900
C211        C  0.40434347  0.26833415  0.48053594     0.80300
N212        N  0.42817290  0.27315447  0.48242340    -0.78000
C213        C  0.43846964  0.27586144  0.50429348     0.82800
N214        N  0.42482860  0.27358523  0.52420961    -0.77900
C215        C  0.40111761  0.26839180  0.52276812     0.82900
N216        N  0.39093820  0.26574973  0.50081082    -0.79600
C217        C  0.22239078  0.10201061  0.47800628     0.80300
N218        N  0.22297291  0.11329693  0.49961773    -0.78000
C219        C  0.21997932  0.10079828  0.52038034     0.82800
N220        N  0.21667937  0.07664135  0.51961185    -0.77900
C221        C  0.21601660  0.06493508  0.49822581     0.82900
N222        N  0.21897161  0.07776434  0.47755849    -0.79600
O223        O  0.25916661  0.15025765  0.77308115    -0.86400
O224        O  0.29628593  0.27784438  0.79991090    -0.86500
O225        O  0.32525518  0.19876610  0.80243177    -0.88200
O226        O  0.25257839  0.21783028  0.82456856    -0.87000
O227        O  0.21886726  0.23235792  0.80550629    -0.86600
O228        O  0.34523808  0.19882721  0.76631206    -0.87900
O229        O  0.29544934  0.24283230  0.82175207    -0.86400
O230        O  0.27471498  0.16906643  0.80639176    -0.86000
Zr231      Zr  0.28361401  0.21067579  0.79487424     2.84300
O232        O  0.26273752  0.24539731  0.78333393    -1.08000
O233        O  0.29353649  0.18824711  0.76091985    -1.08700
C234        C  0.26538151  0.15091895  0.79530494     1.06700
C235        C  0.29775277  0.26583367  0.81974085     1.06700
C236        C  0.34418024  0.19583991  0.78921337     1.09700
C237        C  0.23101074  0.22635746  0.82427173     1.07400
H238        H  0.32191426  0.23954934  0.77868705     0.33000
O239        O  0.30761880  0.23475516  0.77012582    -1.28900
H240        H  0.23816228  0.19130308  0.78521766     0.32700
O241        O  0.24834041  0.20050722  0.77462511    -1.30600
O242        O  0.28100390  0.29744393  0.72483677    -0.86400
O243        O  0.24573213  0.16869484  0.69964384    -0.87900
O244        O  0.34662523  0.24447527  0.73801153    -0.86500
O245        O  0.21972383  0.27661895  0.77480440    -0.86500
O246        O  0.19814462  0.20371778  0.76217356    -0.86200
O247        O  0.32463589  0.17087869  0.72382584    -0.86000
O248        O  0.29492118  0.23402232  0.67618102    -0.86400
O249        O  0.22050243  0.25000769  0.69667567    -0.85900
O250        O  0.32870288  0.21977130  0.69494792    -0.86900
O251        O  0.20042332  0.24994708  0.73259513    -0.86100
O252        O  0.32818309  0.27893846  0.75098706    -0.86500
O253        O  0.28916866  0.15010636  0.72817598    -0.86200
O254        O  0.21628969  0.16937791  0.74860919    -0.85800
O255        O  0.25537492  0.29696000  0.77185514    -0.86300
O256        O  0.26646252  0.27686058  0.69225761    -0.86600
O257        O  0.24791296  0.20355303  0.67775604    -0.87900
Zr258      Zr  0.28630056  0.26914596  0.75819333     2.83100
Zr259      Zr  0.25822336  0.17842577  0.74029543     2.83500
Zr260      Zr  0.31729015  0.21228266  0.73602278     2.84100
Zr261      Zr  0.22771108  0.23519089  0.76306212     2.83400
Zr262      Zr  0.26137907  0.23550661  0.70404127     2.84200
O263        O  0.23654750  0.21250635  0.72876202    -1.08500
O264        O  0.29641716  0.24679351  0.72419989    -1.08000
C265        C  0.27312655  0.29621455  0.70301265     1.06700
C266        C  0.24412924  0.18076473  0.67989945     1.09300
C267        C  0.34669009  0.26690887  0.74374369     1.06900
C268        C  0.23255549  0.29587437  0.77616981     1.07200
C269        C  0.19810951  0.18121499  0.75683630     1.06800
C270        C  0.31177039  0.15158825  0.72313812     1.06400
C271        C  0.31745275  0.22836964  0.67669936     1.06800
C272        C  0.20171672  0.25401028  0.70985856     1.06300
H273        H  0.28739414  0.19201936  0.70100606     0.33000
O274        O  0.28277706  0.20114407  0.71502162    -1.29600
H275        H  0.24259694  0.27237826  0.73299831     0.33000
O276        O  0.25148623  0.25822918  0.73776162    -1.30900
C277        C  0.40444266  0.69247103  0.47840957     0.80300
N278        N  0.42820471  0.68727631  0.47651792    -0.78000
C279        C  0.44194906  0.68490437  0.49645822     0.82800
N280        N  0.43180881  0.68765300  0.51847519    -0.77900
C281        C  0.40804332  0.69258280  0.52065824     0.82900
N282        N  0.39451290  0.69499126  0.50052013    -0.79600
C283        C  0.21673857  0.84745114  0.51814004     0.80300
N284        N  0.21515689  0.87181708  0.51699511    -0.78000
C285        C  0.21214647  0.88321240  0.49555780     0.82800
N286        N  0.21117590  0.86994499  0.47513799    -0.77900
C287        C  0.21287192  0.84563678  0.47612510     0.82900
N288        N  0.21601640  0.83450528  0.49755053    -0.79600
C289        C  0.24084322  0.49403853  0.62370368     0.80300
N290        N  0.23473323  0.49672870  0.60022434    -0.78000
C291        C  0.23030877  0.47727213  0.58632968     0.82800
N292        N  0.23217698  0.45487600  0.59583088    -0.77900
C293        C  0.23823235  0.45197206  0.61925719     0.82900
N294        N  0.24259707  0.47158833  0.63295544    -0.79600
C295        C  0.14568914  0.45447414  0.79097963     0.80300
N296        N  0.15736867  0.47586370  0.79252527    -0.78000
C297        C  0.14480480  0.49677861  0.79396717     0.82800
N298        N  0.12035518  0.49616188  0.79422714    -0.77900
C299        C  0.10847008  0.47489819  0.79243534     0.82900
N300        N  0.12125396  0.45414518  0.79074800    -0.79600
O301        O  0.24957795  0.73486560  0.82244950    -0.86400
O302        O  0.22090366  0.69783250  0.69516547    -0.86500
O303        O  0.19790358  0.74544602  0.75987217    -0.88200
O304        O  0.22007696  0.67189268  0.77466064    -0.87000
O305        O  0.25641913  0.65238621  0.77490381    -0.86600
O306        O  0.21542181  0.77917304  0.74385815    -0.87900
O307        O  0.20028863  0.69888000  0.73087374    -0.86400
O308        O  0.21618693  0.71994450  0.80329182    -0.86000
Zr309      Zr  0.22737291  0.71329127  0.76184667     2.84300
O310        O  0.25235519  0.68923569  0.73857595    -1.08000
O311        O  0.24782843  0.74848316  0.77190496    -1.08700
C312        C  0.22744361  0.72782647  0.82188126     1.06700
C313        C  0.20167679  0.69513830  0.70805733     1.06700
C314        C  0.19735281  0.76751351  0.75279848     1.09700
C315        C  0.23340590  0.65312061  0.77789531     1.07400
H316        H  0.22298732  0.73863421  0.71767630     0.33000
O317        O  0.23723572  0.73429311  0.72659981    -1.28900
H318        H  0.25747779  0.69512764  0.79856199     0.32700
O319        O  0.26184326  0.70385580  0.78418237    -1.30600
O320        O  0.29579452  0.71152196  0.67470028    -0.86400
O321        O  0.32397829  0.75273546  0.80126460    -0.87900
O322        O  0.24757485  0.77668301  0.69489231    -0.86500
O323        O  0.28276987  0.64910754  0.73047669    -0.86500
O324        O  0.30087871  0.67402295  0.80166638    -0.86200
O325        O  0.25814921  0.79855336  0.76893795    -0.86000
O326        O  0.32464789  0.77641574  0.72104367    -0.86400
O327        O  0.34742848  0.70457105  0.73989270    -0.85900
O328        O  0.28876735  0.79686636  0.72219862    -0.86900
O329        O  0.32921238  0.67097561  0.75517808    -0.86100
O330        O  0.25132624  0.74092149  0.67470036    -0.86500
O331        O  0.27220233  0.78039017  0.80337551    -0.86200
O332        O  0.29892030  0.70991246  0.82185266    -0.85800
O333        O  0.26575551  0.66665730  0.69709128    -0.86300
O334        O  0.32823768  0.72812934  0.69368384    -0.86600
O335        O  0.34461729  0.74976939  0.76562314    -0.87900
Zr336      Zr  0.26246138  0.70980623  0.70340066     2.83100
Zr337      Zr  0.28255334  0.73922674  0.79379902     2.83500
Zr338      Zr  0.25785120  0.76938189  0.73683104     2.84100
Zr339      Zr  0.28694458  0.68009143  0.76054756     2.83400
Zr340      Zr  0.31720752  0.73566708  0.73505467     2.84200
O341        O  0.30742177  0.71516972  0.77027612    -1.08500
O342        O  0.28270554  0.74512962  0.71334604    -1.08000
C343        C  0.31774783  0.71926883  0.67510699     1.06700
C344        C  0.34333966  0.75399247  0.78833300     1.09300
C345        C  0.24746307  0.76378976  0.67560479     1.06900
C346        C  0.27347523  0.64847974  0.70931499     1.07200
C347        C  0.30350715  0.68720666  0.82056336     1.06800
C348        C  0.26339965  0.79822278  0.79145849     1.06400
C349        C  0.31162821  0.79542395  0.71821300     1.06800
C350        C  0.34775558  0.68277769  0.74775534     1.06300
H351        H  0.30119674  0.77488962  0.76307775     0.33000
O352        O  0.29275393  0.76035604  0.75878960    -1.29600
H353        H  0.30764756  0.68974774  0.71535383     0.33000
O354        O  0.29737168  0.69999425  0.72490858    -1.30900
C355        C  0.77597104  0.44193281  0.38456855     0.80300
N356        N  0.77394599  0.46226388  0.37104179    -0.78000
C357        C  0.77720859  0.48434171  0.38105446     0.82800
N358        N  0.78250380  0.48602149  0.40480929    -0.77900
C359        C  0.78424122  0.46584799  0.41839414     0.82900
N360        N  0.78096288  0.44407966  0.40821902    -0.79600
C361        C  0.89813266  0.48409011  0.18608473     0.80300
N362        N  0.92250099  0.48488782  0.18406668    -0.78000
C363        C  0.93577833  0.46437091  0.18468357     0.82800
N364        N  0.92444638  0.44290148  0.18706229    -0.77900
C365        C  0.90010605  0.44184569  0.18863626     0.82900
N366        N  0.88711105  0.46246963  0.18826986    -0.79600
C367        C  0.54588488  0.59724812  0.27601214     0.80300
N368        N  0.52454939  0.60891567  0.27399413    -0.78000
C369        C  0.50370099  0.59753943  0.27948449     0.82800
N370        N  0.50401667  0.57437198  0.28691294    -0.77900
C371        C  0.52514300  0.56243041  0.28903114     0.82900
N372        N  0.54590085  0.57400952  0.28359170    -0.79600
C373        C  0.55330042  0.77717911  0.12511787     0.80300
N374        N  0.55142271  0.78020000  0.10093013    -0.78000
C375        C  0.52960573  0.78266613  0.09015363     0.82800
N376        N  0.50948606  0.78174109  0.10392328    -0.77900
C377        C  0.51105041  0.77871807  0.12804116     0.82900
N378        N  0.53286970  0.77627833  0.13851993    -0.79600
O379        O  0.79512706  0.78973860  0.22620885    -0.86400
O380        O  0.75257202  0.66518450  0.19301661    -0.86500
O381        O  0.80251758  0.73105515  0.17084292    -0.88200
O382        O  0.72922393  0.74415799  0.19545495    -0.87000
O383        O  0.70974875  0.74217636  0.23183424    -0.86600
O384        O  0.83625695  0.71426216  0.18789422    -0.87900
O385        O  0.75506756  0.70105522  0.17279470    -0.86400
O386        O  0.77857081  0.77320661  0.19252143    -0.86000
Zr387      Zr  0.77052799  0.73084143  0.20085100     2.84300
O388        O  0.74641781  0.70632600  0.22506167    -1.08000
O389        O  0.80573923  0.73954591  0.22160840    -1.08700
C390        C  0.78813757  0.79081873  0.20417781     1.06700
C391        C  0.75013755  0.67838599  0.17410299     1.06700
C392        C  0.82484295  0.72462953  0.17059036     1.09700
C393        C  0.71057522  0.74660138  0.20909884     1.07400
H394        H  0.79526644  0.68681922  0.19415499     0.33000
O395        O  0.79134261  0.69506127  0.20892208    -1.28900
H396        H  0.75302544  0.76583877  0.23287088     0.32700
O397        O  0.76164021  0.75119018  0.23656876    -1.30600
O398        O  0.77044881  0.64004962  0.26483222    -0.86400
O399        O  0.81195467  0.76583259  0.29808199    -0.87900
O400        O  0.83280741  0.66295309  0.21559844    -0.86500
O401        O  0.70823154  0.69526248  0.25847673    -0.86500
O402        O  0.73094738  0.76699689  0.27541434    -0.86200
O403        O  0.85595695  0.73688608  0.22858977    -0.86000
O404        O  0.83595977  0.68608027  0.29501748    -0.86400
O405        O  0.76324979  0.70161190  0.31955329    -0.85900
O406        O  0.85573298  0.69025033  0.25895112    -0.86900
O407        O  0.72919867  0.71745313  0.30274160    -0.86100
O408        O  0.79685297  0.64288481  0.21815579    -0.86500
O409        O  0.83845649  0.76952718  0.24650040    -0.86200
O410        O  0.76665859  0.78742979  0.27295595    -0.85800
O411        O  0.72517503  0.66153024  0.24179162    -0.86300
O412        O  0.78752834  0.65736979  0.29798551    -0.86600
O413        O  0.81046352  0.72927281  0.31724650    -0.87900
Zr414      Zr  0.76725637  0.67083775  0.23370046     2.83100
Zr415      Zr  0.79712861  0.75972767  0.25734668     2.83500
Zr416      Zr  0.82686322  0.70421892  0.22934375     2.84100
Zr417      Zr  0.73819669  0.72648306  0.26098825     2.83400
Zr418      Zr  0.79466120  0.69967835  0.28932585     2.84200
O419        O  0.77349830  0.73533428  0.28187700    -1.08500
O420        O  0.80328135  0.67936547  0.25364706    -1.08000
C421        C  0.77833720  0.63934067  0.28663902     1.06700
C422        C  0.81501192  0.75200274  0.31650185     1.09300
C423        C  0.81958651  0.64395608  0.21366297     1.06900
C424        C  0.70752848  0.67330478  0.25128699     1.07200
C425        C  0.74395250  0.78600437  0.27790800     1.06800
C426        C  0.85599511  0.75907607  0.23542653     1.06400
C427        C  0.85489986  0.68522352  0.28157125     1.06800
C428        C  0.74098760  0.70803887  0.32038114     1.06300
H429        H  0.83327177  0.72866865  0.27345283     0.33000
O430        O  0.81853145  0.72449514  0.26529340    -1.29600
H431        H  0.74891458  0.68060426  0.27951694     0.33000
O432        O  0.75875825  0.69082466  0.26949337    -1.30900
C433        C  0.65756167  0.69498276  0.52082000     0.80300
N434        N  0.63355895  0.69081021  0.52157749    -0.78000
C435        C  0.62102409  0.68687282  0.50114161     0.82800
N436        N  0.63270878  0.68708697  0.47975576    -0.77900
C437        C  0.65664393  0.69145427  0.47872697     0.82900
N438        N  0.66904391  0.69537900  0.49932112    -0.79600
C439        C  0.84187023  0.82870022  0.51840015     0.80300
N440        N  0.84249653  0.81662195  0.49723758    -0.78000
C441        C  0.84481429  0.82885005  0.47615949     0.82800
N442        N  0.84554124  0.85328304  0.47652752    -0.77900
C443        C  0.84500711  0.86539687  0.49767038     0.82900
N444        N  0.84312028  0.85301605  0.51853605    -0.79600
C445        C  0.54706982  0.59363469  0.76383002     0.80300
N446        N  0.52647980  0.60646591  0.76126341    -0.78000
C447        C  0.50487355  0.59560736  0.76432126     0.82800
N448        N  0.50396398  0.57184923  0.76955657    -0.77900
C449        C  0.52445365  0.55889821  0.77208526     0.82900
N450        N  0.54605343  0.56995865  0.76949821    -0.79600
C451        C  0.50149911  0.78104795  0.87224037     0.80300
N452        N  0.52269868  0.77895676  0.86019218    -0.78000
C453        C  0.54392342  0.78049156  0.87212048     0.82800
N454        N  0.54393533  0.78374691  0.89628765    -0.77900
C455        C  0.52293062  0.78564602  0.90862262     0.82900
N456        N  0.50175229  0.78400161  0.89652964    -0.79600
C457        C  0.80577488  0.44970373  0.63054182     0.80300
N458        N  0.80264165  0.47064304  0.64264140    -0.78000
C459        C  0.80410471  0.49201481  0.63092707     0.82800
N460        N  0.80887034  0.49228816  0.60703847    -0.77900
C461        C  0.81196837  0.47152008  0.59470335     0.82900
N462        N  0.81003453  0.45030003  0.60652605    -0.79600
C463        C  0.88972705  0.48996583  0.80464064     0.80300
N464        N  0.91420928  0.49031436  0.80537136    -0.78000
C465        C  0.92715527  0.46961399  0.80413673     0.82800
N466        N  0.91538640  0.44847390  0.80191154    -0.77900
C467        C  0.89104196  0.44766051  0.80107397     0.82900
N468        N  0.87814182  0.46846516  0.80260487    -0.79600
O469        O  0.79975162  0.73689841  0.82908855    -0.86400
O470        O  0.82882088  0.69797582  0.70170896    -0.86500
O471        O  0.83014552  0.67233110  0.78293815    -0.88200
O472        O  0.85233853  0.74555039  0.76630123    -0.87000
O473        O  0.83438192  0.77920205  0.75040567    -0.86600
O474        O  0.79376747  0.65293904  0.78247630    -0.87900
O475        O  0.85008581  0.69875463  0.73702824    -0.86400
O476        O  0.83320883  0.72145849  0.81021050    -0.86000
Zr477      Zr  0.82297453  0.71331804  0.76849867     2.84300
O478        O  0.81300986  0.73442252  0.73337061    -1.08000
O479        O  0.78804838  0.70419053  0.79029517    -1.08700
C480        C  0.82212659  0.73057614  0.82846712     1.06700
C481        C  0.84815564  0.69515882  0.71416445     1.06700
C482        C  0.81659147  0.65377839  0.78656012     1.09700
C483        C  0.85246014  0.76773535  0.75946385     1.07400
H484        H  0.80727276  0.67469786  0.74061289     0.33000
O485        O  0.79857507  0.68913850  0.74475563    -1.28900
H486        H  0.81233305  0.75822041  0.78781262     0.32700
O487        O  0.80195472  0.74842231  0.77800675    -1.30600
O488        O  0.75601860  0.71370269  0.68069048    -0.86400
O489        O  0.72532026  0.75216186  0.80739916    -0.87900
O490        O  0.76741627  0.64962619  0.73537539    -0.86500
O491        O  0.80486559  0.77609404  0.70119002    -0.86500
O492        O  0.79316136  0.79900593  0.77554529    -0.86200
O493        O  0.74958080  0.67266598  0.80668653    -0.86000
O494        O  0.70286436  0.70455752  0.74532641    -0.86400
O495        O  0.72522234  0.77755424  0.72836615    -0.85900
O496        O  0.72150201  0.67076109  0.76002657    -0.86900
O497        O  0.76107364  0.79799504  0.73057959    -0.86100
O498        O  0.78228190  0.66782018  0.70147285    -0.86500
O499        O  0.75253003  0.70818148  0.82729555    -0.86200
O500        O  0.77784186  0.78133551  0.80963482    -0.85800
O501        O  0.80231042  0.73983176  0.68184316    -0.86300
O502        O  0.72244552  0.72945775  0.69906280    -0.86600
O503        O  0.70481981  0.75028283  0.77168545    -0.87900
Zr504      Zr  0.78781297  0.71026113  0.71014610     2.83100
Zr505      Zr  0.76714984  0.73960770  0.79998355     2.83500
Zr506      Zr  0.76358586  0.68016981  0.76615750     2.84100
Zr507      Zr  0.79223651  0.76975345  0.74310103     2.83400
Zr508      Zr  0.73262644  0.73621989  0.74107000     2.84200
O509        O  0.75708723  0.76080732  0.76490128    -1.08500
O510        O  0.75262337  0.70048092  0.73093617    -1.08000
C511        C  0.73414308  0.72136487  0.68071618     1.06700
C512        C  0.70596216  0.75388455  0.79455346     1.09300
C513        C  0.77513333  0.64929871  0.71353574     1.06900
C514        C  0.80674130  0.76254826  0.68236661     1.07200
C515        C  0.78785873  0.79898041  0.79815644     1.06800
C516        C  0.74744164  0.68551215  0.82580124     1.06400
C517        C  0.70288463  0.68262070  0.75287352     1.06800
C518        C  0.73823224  0.79669337  0.72660981     1.06300
H519        H  0.72857955  0.71106079  0.78491578     0.33000
O520        O  0.74290033  0.71533273  0.77607370    -1.29600
H521        H  0.76293588  0.75445816  0.70514940     0.33000
O522        O  0.76734435  0.74578147  0.71953689    -1.30900
C523        C  0.51459120  0.34929342  0.28948081     0.80300
N524        N  0.51620695  0.37314227  0.29450683    -0.78000
C525        C  0.53781679  0.38373321  0.29838730     0.82800
N526        N  0.55817537  0.37031040  0.29731605    -0.77900
C527        C  0.55679221  0.34646121  0.29257259     0.82900
N528        N  0.53510616  0.33613474  0.28850643    -0.79600
C529        C  0.55174965  0.18080687  0.12425340     0.80300
N530        N  0.53038074  0.18273826  0.13616199    -0.78000
C531        C  0.50933945  0.18419424  0.12375954     0.82800
N532        N  0.50981026  0.18393575  0.09940975    -0.77900
C533        C  0.53091680  0.18190986  0.08734454     0.82900
N534        N  0.55185361  0.18061884  0.09979109    -0.79600
O535        O  0.80509152  0.20335144  0.17748103    -0.86400
O536        O  0.83388947  0.23884826  0.30546887    -0.86500
O537        O  0.83490218  0.26404316  0.22610607    -0.88200
O538        O  0.85799078  0.19074557  0.24080713    -0.87000
O539        O  0.83972331  0.15647078  0.25494415    -0.86600
O540        O  0.79876261  0.28387679  0.22818973    -0.87900
O541        O  0.85452361  0.23759085  0.26982031    -0.86400
O542        O  0.83796055  0.21866245  0.19705417    -0.86000
Zr543      Zr  0.82794522  0.22257854  0.23899268     2.84300
O544        O  0.81834422  0.20021671  0.27325961    -1.08000
O545        O  0.79314277  0.23208933  0.21755628    -1.08700
C546        C  0.82684868  0.21142380  0.17816092     1.06700
C547        C  0.85279208  0.24248147  0.29235011     1.06700
C548        C  0.82156914  0.28297477  0.22396592     1.09700
C549        C  0.85795453  0.16832424  0.24687608     1.07400
H550        H  0.81158112  0.26061255  0.26784132     0.33000
O551        O  0.80322553  0.24615982  0.26316408    -1.28900
H552        H  0.81853448  0.17846058  0.21738912     0.32700
O553        O  0.80785412  0.18765883  0.22752537    -1.30600
O554        O  0.76043812  0.22132542  0.32588266    -0.86400
O555        O  0.73106591  0.18558920  0.19760384    -0.87900
O556        O  0.77060182  0.28508382  0.27389817    -0.86500
O557        O  0.80981555  0.15714898  0.30266788    -0.86500
O558        O  0.79910815  0.13721220  0.22813987    -0.86200
O559        O  0.75699592  0.26370375  0.19978640    -0.86000
O560        O  0.70851604  0.23084561  0.26638859    -0.86400
O561        O  0.73124986  0.15644125  0.27651129    -0.85900
O562        O  0.72637925  0.26457774  0.25097276    -0.86900
O563        O  0.76727792  0.13640156  0.27354710    -0.86100
O564        O  0.78460891  0.26568564  0.30764144    -0.86500
O565        O  0.76062696  0.22843517  0.17887861    -0.86200
O566        O  0.78417756  0.15611618  0.19454382    -0.85800
O567        O  0.80760776  0.19239089  0.32400330    -0.86300
O568        O  0.72723712  0.20588506  0.30674615    -0.86600
O569        O  0.71004171  0.18801924  0.23308214    -0.87900
Zr570      Zr  0.79326058  0.22386939  0.29729624     2.83100
Zr571      Zr  0.77285148  0.19699209  0.20633269     2.83500
Zr572      Zr  0.76830814  0.25568205  0.24164477     2.84100
Zr573      Zr  0.79755981  0.16546646  0.26156704     2.83400
Zr574      Zr  0.73792698  0.19852216  0.26497356     2.84200
O575        O  0.76229074  0.17451087  0.24033385    -1.08500
O576        O  0.75847412  0.23347188  0.27587047    -1.08000
C577        C  0.73829385  0.21452400  0.32517902     1.06700
C578        C  0.71143477  0.18472520  0.21016201     1.09300
C579        C  0.77676654  0.28437102  0.29623464     1.06900
C580        C  0.81184043  0.16966512  0.32207534     1.07200
C581        C  0.79399269  0.13810117  0.20553132     1.06800
C582        C  0.75596240  0.25106470  0.18028722     1.06400
C583        C  0.70846004  0.25332394  0.26055424     1.06800
C584        C  0.74453221  0.13735259  0.27805810     1.06300
H585        H  0.73363602  0.22566344  0.22188332     0.33000
O586        O  0.74786392  0.22079983  0.23052988    -1.29600
H587        H  0.76815860  0.17958527  0.30044757     0.33000
O588        O  0.77269453  0.18865338  0.28636031    -1.30900
C589        C  0.50652438  0.34748526  0.76089652     0.80300
N590        N  0.52690926  0.33421296  0.75940738    -0.78000
C591        C  0.54852148  0.34401124  0.76469991     0.82800
N592        N  0.54969612  0.36744952  0.77129157    -0.77900
C593        C  0.52940227  0.38094045  0.77290170     0.82900
N594        N  0.50779542  0.37081282  0.76784082    -0.79600
C595        C  0.50440150  0.17648551  0.86962687     0.80300
N596        N  0.50361531  0.17454356  0.89397949    -0.78000
C597        C  0.52413033  0.17460358  0.90711888     0.82800
N598        N  0.54558642  0.17652515  0.89573108    -0.77900
C599        C  0.54676227  0.17870155  0.87154026     0.82900
N600        N  0.52611130  0.17842253  0.85853899    -0.79600
C601        C  0.65204500  0.25718465  0.51982063     0.80300
N602        N  0.66367926  0.25302701  0.49879177    -0.78000
C603        C  0.65186627  0.25458959  0.47759874     0.82800
N604        N  0.62807977  0.25994889  0.47738890    -0.77900
C605        C  0.61624662  0.26417264  0.49828672     0.82900
N606        N  0.62829066  0.26270771  0.51941094    -0.79600
C607        C  0.83336369  0.08408577  0.47931253     0.80300
N608        N  0.83516700  0.05973765  0.47890424    -0.78000
C609        C  0.83521764  0.04666180  0.49953596     0.82800
N610        N  0.83289597  0.05837086  0.52088650    -0.77900
C611        C  0.83113928  0.08272976  0.52150302     0.82900
N612        N  0.83166888  0.09544052  0.50074866    -0.79600
O613        O  0.80063714  0.20002303  0.82295450    -0.86400
O614        O  0.83327230  0.23898116  0.69661262    -0.86500
O615        O  0.85292659  0.18961865  0.76337505    -0.88200
O616        O  0.83258594  0.26409350  0.77488518    -0.87000
O617        O  0.79693348  0.28475731  0.77418734    -0.86600
O618        O  0.83553411  0.15663757  0.74574355    -0.87900
O619        O  0.85353666  0.23574693  0.73235175    -0.86400
O620        O  0.83381902  0.21634626  0.80451996    -0.86000
Zr621      Zr  0.82478510  0.22275330  0.76264677     2.84300
O622        O  0.80103269  0.24756855  0.73900355    -1.08000
O623        O  0.80338323  0.18803148  0.77210081    -1.08700
C624        C  0.82245679  0.20790850  0.82284163     1.06700
C625        C  0.85242829  0.24027899  0.70964158     1.06700
C626        C  0.85298935  0.16754349  0.75645685     1.09700
C627        C  0.81989986  0.28339312  0.77737615     1.07400
H628        H  0.83010067  0.19718272  0.71893826     0.33000
O629        O  0.81564346  0.20177721  0.72743755    -1.28900
H630        H  0.79448141  0.24132980  0.79848246     0.32700
O631        O  0.79002036  0.23279918  0.78410052    -1.30600
O632        O  0.75957103  0.22757048  0.67474019    -0.86400
O633        O  0.72615717  0.18868450  0.80042583    -0.87900
O634        O  0.80687565  0.16015478  0.69568961    -0.86500
O635        O  0.77158054  0.28765707  0.72876685    -0.86500
O636        O  0.75354074  0.26363675  0.80204399    -0.86200
O637        O  0.79486178  0.13903798  0.77052951    -0.86000
O638        O  0.72723255  0.16104511  0.72050884    -0.86400
O639        O  0.70502663  0.23351428  0.73851799    -0.85900
O640        O  0.76263360  0.13994262  0.72330560    -0.86900
O641        O  0.72332701  0.26653206  0.75521358    -0.86100
O642        O  0.80428206  0.19604596  0.67542670    -0.86500
O643        O  0.77781380  0.15616824  0.80401792    -0.86200
O644        O  0.75503286  0.22765928  0.82212921    -0.85800
O645        O  0.78931269  0.26974611  0.69599457    -0.86300
O646        O  0.72569666  0.21156425  0.69215231    -0.86600
O647        O  0.70610347  0.19161134  0.76456087    -0.87900
Zr648      Zr  0.79172136  0.22690663  0.70386261     2.83100
Zr649      Zr  0.76856320  0.19766454  0.79339395     2.83500
Zr650      Zr  0.79380146  0.16720240  0.73712342     2.84100
Zr651      Zr  0.76597016  0.25744241  0.76012768     2.83400
Zr652      Zr  0.73515843  0.20215006  0.73378777     2.84200
O653        O  0.74501481  0.22235893  0.76912924    -1.08500
O654        O  0.77012460  0.19194111  0.71278362    -1.08000
C655        C  0.73732903  0.22108005  0.67444786     1.06700
C656        C  0.70686000  0.18860477  0.78753243     1.09300
C657        C  0.80848950  0.17321885  0.67650332     1.06900
C658        C  0.78112635  0.28808721  0.70757202     1.07200
C659        C  0.75140516  0.25056316  0.82120782     1.06800
C660        C  0.78882054  0.13898678  0.79294786     1.06400
C661        C  0.73990877  0.14159502  0.71889794     1.06800
C662        C  0.70486042  0.25504776  0.74710162     1.06300
H663        H  0.74954434  0.16243789  0.76269757     0.33000
O664        O  0.75838106  0.17673205  0.75831035    -1.29600
H665        H  0.74650605  0.24800693  0.71474503     0.33000
O666        O  0.75628776  0.23743295  0.72444661    -1.30900
O667        O  0.25641104  0.23052108  0.17536323    -0.86400
O668        O  0.22629635  0.25802134  0.30494092    -0.86500
O669        O  0.20421619  0.21195714  0.23703508    -0.88200
O670        O  0.22471992  0.28685754  0.22842762    -0.87000
O671        O  0.26048576  0.30743393  0.22872123    -0.86600
O672        O  0.22310370  0.17779992  0.25014661    -0.87900
O673        O  0.20550389  0.25735443  0.26935807    -0.86400
O674        O  0.22259245  0.24297058  0.19575876    -0.86000
Zr675      Zr  0.23291259  0.24477623  0.23779103     2.84300
O676        O  0.25703040  0.26805110  0.26261651    -1.08000
O677        O  0.25419413  0.21077838  0.22509099    -1.08700
C678        C  0.23441120  0.23807363  0.17647227     1.06700
C679        C  0.20714797  0.26093250  0.29218213     1.06700
C680        C  0.20456540  0.18931148  0.24215073     1.09700
C681        C  0.23747329  0.30610911  0.22605632     1.07400
H682        H  0.22858841  0.21633538  0.27992506     0.33000
O683        O  0.24281796  0.22144577  0.27140808    -1.28900
H684        H  0.26283412  0.26653120  0.20300630     0.32700
O685        O  0.26732018  0.25669673  0.21660557    -1.30600
O686        O  0.29973543  0.24276345  0.32458955    -0.86400
O687        O  0.33077839  0.21274917  0.19502796    -0.87900
O688        O  0.25370929  0.17740464  0.30022320    -0.86500
O689        O  0.28681927  0.30726076  0.27474520    -0.86500
O690        O  0.30475944  0.28958096  0.20073452    -0.86200
O691        O  0.26753500  0.16087866  0.22460492    -0.86000
O692        O  0.33211317  0.18118703  0.27490697    -0.86400
O693        O  0.35196484  0.25583569  0.26251389    -0.85900
O694        O  0.29662589  0.16043288  0.27146393    -0.86900
O695        O  0.33358533  0.29017720  0.24868806    -0.86100
O696        O  0.25478465  0.21201939  0.32267653    -0.86500
O697        O  0.28204689  0.18139988  0.19170836    -0.86200
O698        O  0.30379277  0.25478547  0.17866513    -0.85800
O699        O  0.27163396  0.28693988  0.30727933    -0.86300
O700        O  0.33343205  0.22849296  0.30537893    -0.86600
O701        O  0.35119330  0.21298135  0.23077293    -0.87900
Zr702      Zr  0.26717638  0.24492645  0.29612488     2.83100
Zr703      Zr  0.28878951  0.22269718  0.20416670     2.83500
Zr704      Zr  0.26492234  0.18789327  0.25879205     2.84100
Zr705      Zr  0.29169855  0.27961217  0.24155097     2.83400
Zr706      Zr  0.32343841  0.22278922  0.26323144     2.84200
O707        O  0.31310174  0.24560047  0.22946223    -1.08500
O708        O  0.28891196  0.21099185  0.28412430    -1.08000
C709        C  0.32201638  0.23642503  0.32396549     1.06700
C710        C  0.35022455  0.21110110  0.20767892     1.09300
C711        C  0.25181748  0.18909275  0.32025404     1.06900
C712        C  0.27883690  0.30620045  0.29646266     1.07200
C713        C  0.30778890  0.27746561  0.18115536     1.06800
C714        C  0.27410184  0.16237650  0.20238523     1.06400
C715        C  0.31936941  0.16176128  0.27593301     1.06800
C716        C  0.35180448  0.27833827  0.25686821     1.06300
H717        H  0.30863667  0.18563086  0.23241122     0.33000
O718        O  0.29964391  0.19951713  0.23768559    -1.29600
H719        H  0.31181001  0.26672604  0.28587834     0.33000
O720        O  0.30201074  0.25693898  0.27547502    -1.30900
C721        C  0.83512363  0.13125258  0.62924869    -0.22400
C722        C  0.82006181  0.13617876  0.60964094     0.09600
C723        C  0.80235266  0.15425142  0.61165245     0.10000
C724        C  0.79952234  0.16638286  0.63355029    -0.17300
C725        C  0.81400996  0.16095501  0.65351284    -0.27700
C726        C  0.83252142  0.14362186  0.65111984     0.18300
C727        C  0.82328866  0.12236693  0.58708437     0.12300
C728        C  0.78660995  0.16092310  0.59064441    -0.12000
H729        H  0.78551047  0.17985279  0.63526175     0.12600
C730        C  0.85013159  0.13879451  0.67112156    -0.22900
H731        H  0.84899132  0.11766407  0.62737633     0.08200
C732        C  0.84287256  0.12678955  0.57152162     0.04600
C733        C  0.84514016  0.11332454  0.55034830    -0.20100
C734        C  0.82827896  0.09559103  0.54442530    -0.12400
C735        C  0.80824780  0.09168802  0.55956161     0.13300
C736        C  0.80615933  0.10492205  0.58093266    -0.22800
C737        C  0.86103836  0.14607885  0.57697142    -0.05900
H738        H  0.86012044  0.11666379  0.53830054     0.14800
C739        C  0.78851796  0.07451353  0.55260182    -0.16100
H740        H  0.79093156  0.10193365  0.59275377     0.09100
H741        H  0.86424059  0.12576019  0.66558622     0.07000
H742        H  0.84072547  0.13115831  0.68696642     0.08200
H743        H  0.85919942  0.15579477  0.67628179     0.07200
H744        H  0.77557403  0.14526868  0.58517111     0.02100
H745        H  0.79800276  0.16669057  0.57527754     0.02600
H746        H  0.77417011  0.17591035  0.59512464     0.06100
H747        H  0.87475124  0.14767399  0.56251925     0.05100
H748        H  0.87052273  0.14184338  0.59398263    -0.00700
H749        H  0.85179176  0.16369350  0.57873750     0.00800
H750        H  0.79574144  0.05596262  0.55131965     0.04500
H751        H  0.78089285  0.07990753  0.53495835     0.06400
H752        H  0.77366524  0.07444832  0.56597591     0.07300
C753        C  0.67041658  0.25929754  0.58571390    -0.22400
C754        C  0.68917974  0.24251512  0.58580135     0.09600
C755        C  0.69625345  0.23125703  0.56428680     0.10000
C756        C  0.68397432  0.23677254  0.54308035    -0.17300
C757        C  0.66477143  0.25328745  0.54284837    -0.27700
C758        C  0.65819973  0.26507072  0.56447976     0.18300
C759        C  0.70136466  0.23725722  0.60867190     0.12300
C760        C  0.71688175  0.21363275  0.56362913    -0.12000
H761        H  0.68921086  0.22773635  0.52664704     0.12600
C762        C  0.63897420  0.28420097  0.56544630    -0.22900
H763        H  0.66534499  0.26791884  0.60243445     0.08200
C764        C  0.71686279  0.25416518  0.61933759     0.04600
C765        C  0.72796706  0.24839878  0.64107969    -0.20100
C766        C  0.72416190  0.22604618  0.65217478    -0.12400
C767        C  0.70882675  0.20899393  0.64136681     0.13300
C768        C  0.69739091  0.21495484  0.61975227    -0.22800
C769        C  0.72219631  0.27798888  0.60752676    -0.05900
H770        H  0.73979178  0.26140203  0.64946135     0.14800
C771        C  0.70527312  0.18426655  0.65192368    -0.16100
H772        H  0.68546922  0.20211432  0.61128501     0.09100
H773        H  0.64296046  0.29850118  0.55208062     0.07000
H774        H  0.63797865  0.29280304  0.58341989     0.08200
H775        H  0.62107435  0.27623104  0.56182356     0.07200
H776        H  0.71268401  0.19775274  0.57495954     0.02100
H777        H  0.73346753  0.22237696  0.57042244     0.02600
H778        H  0.72050890  0.20713698  0.54511202     0.06100
H779        H  0.73536035  0.28866881  0.61802930     0.05100
H780        H  0.70548337  0.28877917  0.60595169    -0.00700
H781        H  0.72985904  0.27493509  0.58934696     0.00800
H782        H  0.69397501  0.17278594  0.64018081     0.04500
H783        H  0.69615317  0.18557459  0.66961922     0.06400
H784        H  0.72296705  0.17524072  0.65414063     0.07300
C785        C  0.65664511  0.17073799  0.83062996    -0.22400
C786        C  0.63834303  0.18638915  0.82315598     0.09600
C787        C  0.64274977  0.20303387  0.80456829     0.10000
C788        C  0.66504999  0.20263456  0.79282328    -0.17300
C789        C  0.68345860  0.18681747  0.80006204    -0.27700
C790        C  0.67937833  0.17103307  0.81960283     0.18300
C791        C  0.61463779  0.18488483  0.83504132     0.12300
C792        C  0.62425945  0.22167555  0.79768943    -0.12000
H793        H  0.66842110  0.21534066  0.77840863     0.12600
C794        C  0.69864830  0.15424226  0.82866114    -0.22900
H795        H  0.65309960  0.15832640  0.84524778     0.08200
C796        C  0.59575120  0.17135431  0.82500484     0.04600
C797        C  0.57370066  0.16999946  0.83716804    -0.20100
C798        C  0.57032175  0.18136524  0.85942607    -0.12400
C799        C  0.58940221  0.19498489  0.86945911     0.13300
C800        C  0.61129739  0.19662401  0.85699808    -0.22800
C801        C  0.59906951  0.15789484  0.80175593    -0.05900
H802        H  0.55919492  0.15951851  0.82951585     0.14800
C803        C  0.58681564  0.20834319  0.89289844    -0.16100
H804        H  0.62600686  0.20696465  0.86446427     0.09100
H805        H  0.70531819  0.14280034  0.81373692     0.07000
H806        H  0.69180298  0.14224625  0.84309832     0.08200
H807        H  0.71378254  0.16470642  0.83630225     0.07200
H808        H  0.62013668  0.23315403  0.81347493     0.02100
H809        H  0.60746128  0.21290673  0.79157336     0.02600
H810        H  0.63079318  0.23351250  0.78297095     0.06100
H811        H  0.58256817  0.14793015  0.79661967     0.05100
H812        H  0.61396712  0.14472416  0.80365866    -0.00700
H813        H  0.60345657  0.17057685  0.78700009     0.00800
H814        H  0.58480176  0.19544355  0.90799127     0.04500
H815        H  0.57095345  0.22047044  0.89214274     0.06400
H816        H  0.60286999  0.21952892  0.89680624     0.07300
C817        C  0.64465285  0.28301751  0.73107199    -0.22400
C818        C  0.63679450  0.29056606  0.75377518     0.09600
C819        C  0.65086554  0.28558746  0.77425261     0.10000
C820        C  0.67324458  0.27433719  0.77135199    -0.17300
C821        C  0.68143481  0.26726402  0.74856668    -0.27700
C822        C  0.66678430  0.27125199  0.72817427     0.18300
C823        C  0.61406265  0.30420357  0.75570606     0.12300
C824        C  0.64229104  0.29214886  0.79910592    -0.12000
H825        H  0.68426103  0.27064710  0.78699353     0.12600
C826        C  0.67407948  0.26399859  0.70309199    -0.22900
H827        H  0.63354964  0.28660563  0.71546830     0.08200
C828        C  0.61275744  0.32864162  0.74901567     0.04600
C829        C  0.59108111  0.34110878  0.75213196    -0.20100
C830        C  0.57075314  0.32975093  0.76190874    -0.12400
C831        C  0.57217415  0.30523913  0.76873803     0.13300
C832        C  0.59380767  0.29273692  0.76529748    -0.22800
C833        C  0.63433120  0.34169205  0.73905495    -0.05900
H834        H  0.58997787  0.35980748  0.74676520     0.14800
C835        C  0.55143937  0.29235023  0.78056626    -0.16100
H836        H  0.59510687  0.27397391  0.77044540     0.09100
H837        H  0.67393491  0.28004433  0.69120163     0.07000
H838        H  0.66104875  0.25064930  0.69605319     0.08200
H839        H  0.69232972  0.25607620  0.70207858     0.07200
H840        H  0.62544096  0.28231917  0.80332709     0.02100
H841        H  0.63887900  0.31178637  0.80014043     0.02600
H842        H  0.65574086  0.28734220  0.81304439     0.06100
H843        H  0.63024767  0.36086271  0.73517900     0.05100
H844        H  0.64026227  0.33313948  0.72204799    -0.00700
H845        H  0.64925764  0.34104579  0.75226720     0.00800
H846        H  0.55657938  0.27398904  0.78653700     0.04500
H847        H  0.53635246  0.29040293  0.76772294     0.06400
H848        H  0.54536850  0.30250966  0.79663526     0.07300
C849        C  0.71765682  0.21192285  0.38976167    -0.22400
C850        C  0.69964680  0.22957331  0.38952906     0.09600
C851        C  0.69356669  0.24132544  0.36789911     0.10000
C852        C  0.70585476  0.23520816  0.34681238    -0.17300
C853        C  0.72426527  0.21799434  0.34714147    -0.27700
C854        C  0.73014224  0.20598396  0.36869034     0.18300
C855        C  0.68739722  0.23560052  0.41219523     0.12300
C856        C  0.67450937  0.26061440  0.36719868    -0.12000
H857        H  0.70166314  0.24444863  0.33015622     0.12600
C858        C  0.74922066  0.18669922  0.36931349    -0.22900
H859        H  0.72199710  0.20291931  0.40649407     0.08200
C860        C  0.66580069  0.22417619  0.41889859     0.04600
C861        C  0.65430643  0.23111906  0.44018736    -0.20100
C862        C  0.66437429  0.24870052  0.45511769    -0.12400
C863        C  0.68625446  0.25986148  0.44857162     0.13300
C864        C  0.69746251  0.25324082  0.42699781    -0.22800
C865        C  0.65514399  0.20447974  0.40374185    -0.05900
H866        H  0.63766146  0.22244249  0.44548138     0.14800
C867        C  0.69741753  0.27920261  0.46385239    -0.16100
H868        H  0.71409319  0.26185926  0.42157085     0.09100
H869        H  0.74448087  0.17214024  0.35655426     0.07000
H870        H  0.75098741  0.17864118  0.38749856     0.08200
H871        H  0.76693812  0.19434342  0.36420753     0.07200
H872        H  0.67964766  0.27559430  0.37929140     0.02100
H873        H  0.65698078  0.25316441  0.37315506     0.02600
H874        H  0.67216339  0.26804128  0.34880717     0.06100
H875        H  0.63832593  0.19726268  0.41176245     0.05100
H876        H  0.66821512  0.18946164  0.40210137    -0.00700
H877        H  0.65087393  0.21142457  0.38554580     0.00800
H878        H  0.71379358  0.28683321  0.45531203     0.04500
H879        H  0.70276337  0.27170170  0.48153777     0.06400
H880        H  0.68433777  0.29405831  0.46656827     0.07300
C881        C  0.83912741  0.15234900  0.38211415    -0.22400
C882        C  0.82585012  0.13162669  0.38742786     0.09600
C883        C  0.80842149  0.12323051  0.37109533     0.10000
C884        C  0.80512853  0.13549197  0.34937010    -0.17300
C885        C  0.81802695  0.15654593  0.34418705    -0.27700
C886        C  0.83523522  0.16514545  0.36074700     0.18300
C887        C  0.82923263  0.12003523  0.41100982     0.12300
C888        C  0.79246871  0.10213536  0.37707433    -0.12000
H889        H  0.79159871  0.12925366  0.33683504     0.12600
C890        C  0.84971817  0.18752133  0.35589153    -0.22900
H891        H  0.85221219  0.15877132  0.39500811     0.08200
C892        C  0.84336500  0.09920094  0.41374641     0.04600
C893        C  0.84467579  0.08816724  0.43636108    -0.20100
C894        C  0.83263433  0.09780407  0.45642299    -0.12400
C895        C  0.81945522  0.11955193  0.45373503     0.13300
C896        C  0.81783166  0.13021237  0.43095926    -0.22800
C897        C  0.85737154  0.08889164  0.39295201    -0.05900
H898        H  0.85530170  0.07195835  0.43838089     0.14800
C899        C  0.80641055  0.13143807  0.47433674    -0.16100
H900        H  0.80735071  0.14649196  0.42855436     0.09100
H901        H  0.86329981  0.19074131  0.37013472     0.07000
H902        H  0.83773626  0.20347070  0.35532380     0.08200
H903        H  0.85935635  0.18573885  0.33849211     0.07200
H904        H  0.78201862  0.10607824  0.39362519     0.02100
H905        H  0.80339626  0.08573488  0.38005405     0.02600
H906        H  0.77951344  0.09830466  0.36240165     0.06100
H907        H  0.86780595  0.07272667  0.39834580     0.05100
H908        H  0.87019940  0.10255319  0.38606425    -0.00700
H909        H  0.84507877  0.08362835  0.37822688     0.00800
H910        H  0.79620471  0.14756570  0.46840974     0.04500
H911        H  0.81952865  0.13751676  0.48804306     0.06400
H912        H  0.79337183  0.11869612  0.48248535     0.07300
C913        C  0.51659771  0.16106526  0.02417940    -0.22400
C914        C  0.53034105  0.17698462  0.01041099     0.09600
C915        C  0.54486917  0.19432611  0.02184149     0.10000
C916        C  0.54512223  0.19540870  0.04708531    -0.17300
C917        C  0.53084647  0.17979092  0.06090884    -0.27700
C918        C  0.51668076  0.16219663  0.04930249     0.18300
C919        C  0.52847615  0.17547856  0.98400345     0.12300
C920        C  0.55966942  0.21187286  0.00740335    -0.12000
H921        H  0.55606646  0.20877106  0.05604609     0.12600
C922        C  0.50219318  0.14404233  0.06330159    -0.22900
H923        H  0.50565682  0.14774425  0.01514497     0.08200
C924        C  0.54487662  0.16184635  0.97033695     0.04600
C925        C  0.54246883  0.16132359  0.94530278    -0.20100
C926        C  0.52365244  0.17356961  0.93367276    -0.12400
C927        C  0.50636453  0.18608991  0.94762159     0.13300
C928        C  0.50918020  0.18702614  0.97265570    -0.22800
C929        C  0.56470035  0.14764814  0.98216671    -0.05900
H930        H  0.55544763  0.15134158  0.93470586     0.14800
C931        C  0.48541468  0.19915354  0.93640041    -0.16100
H932        H  0.49634562  0.19692483  0.98350424     0.09100
H933        H  0.49362011  0.13061392  0.05132349     0.07000
H934        H  0.48763157  0.15316092  0.07344601     0.08200
H935        H  0.51409896  0.13421881  0.07596815     0.07200
H936        H  0.54773595  0.22261063  0.99553372     0.02100
H937        H  0.57293322  0.20209425  0.99615924     0.02600
H938        H  0.56969713  0.22446686  0.01915556     0.06100
H939        H  0.57572992  0.13772353  0.96879179     0.05100
H940        H  0.55679755  0.13434697  0.99479688    -0.00700
H941        H  0.57679377  0.15980640  0.99225735     0.00800
H942        H  0.47443105  0.20874730  0.95005042     0.04500
H943        H  0.47342913  0.18612351  0.92725857     0.06400
H944        H  0.49203813  0.21266668  0.92326873     0.07300
C945        C  0.41639094  0.21431783  0.18960397    -0.22400
C946        C  0.41710488  0.19847364  0.17016255     0.09600
C947        C  0.39573233  0.18720730  0.16246950     0.10000
C948        C  0.37407003  0.19175363  0.17481469    -0.17300
C949        C  0.37339158  0.20717349  0.19481650    -0.27700
C950        C  0.39486377  0.21902532  0.20191563     0.18300
C951        C  0.44049271  0.19456586  0.15788794     0.12300
C952        C  0.39586695  0.17042679  0.14127394    -0.12000
H953        H  0.35768478  0.18295852  0.16904776     0.12600
C954        C  0.39521353  0.23750625  0.22172533    -0.22900
H955        H  0.43284422  0.22321168  0.19503941     0.08200
C956        C  0.44861890  0.21031352  0.13974953     0.04600
C957        C  0.47109021  0.20625258  0.12894548    -0.20100
C958        C  0.48595344  0.18714881  0.13624147    -0.12400
C959        C  0.47778310  0.17140236  0.15457195     0.13300
C960        C  0.45521252  0.17546730  0.16526517    -0.22800
C961        C  0.43368046  0.23157460  0.13204553    -0.05900
H962        H  0.47729226  0.21832263  0.11493514     0.14800
C963        C  0.49175427  0.14966510  0.16270873    -0.16100
H964        H  0.44891853  0.16349508  0.17932488     0.09100
H965        H  0.38164628  0.25167906  0.21797471     0.07000
H966        H  0.41301676  0.24641888  0.22323123     0.08200
H967        H  0.39141879  0.22889875  0.23931029     0.07200
H968        H  0.40797337  0.15497725  0.14497420     0.02100
H969        H  0.40235898  0.18007851  0.12503921     0.02600
H970        H  0.37761895  0.16330692  0.13743356     0.06100
H971        H  0.44267513  0.24210918  0.11764423     0.05100
H972        H  0.43065708  0.24368981  0.14759489    -0.00700
H973        H  0.41604129  0.22534078  0.12514937     0.00800
H974        H  0.49732178  0.15202979  0.18170749     0.04500
H975        H  0.50786472  0.14617970  0.15159245     0.06400
H976        H  0.48021405  0.13344456  0.16140962     0.07300
C977        C  0.66177391  0.16254534  0.16837450    -0.22400
C978        C  0.64319478  0.17863748  0.17422586     0.09600
C979        C  0.64690397  0.19600129  0.19225014     0.10000
C980        C  0.66935367  0.19736239  0.20356926    -0.17300
C981        C  0.68823219  0.18165582  0.19745861    -0.27700
C982        C  0.68430750  0.16381514  0.17984371     0.18300
C983        C  0.62026518  0.17792792  0.16065084     0.12300
C984        C  0.62719958  0.21322676  0.19938964    -0.12000
H985        H  0.67230257  0.21104400  0.21710268     0.12600
C986        C  0.70348999  0.14570562  0.17368101    -0.22900
H987        H  0.65866057  0.14910733  0.15465684     0.08200
C988        C  0.61759706  0.19066107  0.13890479     0.04600
C989        C  0.59508967  0.19116023  0.12751838    -0.20100
C990        C  0.57498873  0.17943609  0.13747702    -0.12400
C991        C  0.57789015  0.16628919  0.15917002     0.13300
C992        C  0.60051822  0.16572582  0.17043644    -0.22800
C993        C  0.63846575  0.20405832  0.12796362    -0.05900
H994        H  0.59309652  0.20116121  0.11090827     0.14800
C995        C  0.55758221  0.15222405  0.17026725    -0.16100
H996        H  0.60279931  0.15598337  0.18716563     0.09100
H997        H  0.71921748  0.15487852  0.16550786     0.07000
H998        H  0.69688494  0.13215279  0.16064405     0.08200
H999        H  0.70922896  0.13606680  0.19020204     0.07200
H1000       H  0.61149817  0.20302318  0.20632800     0.02100
H1001       H  0.62155588  0.22403436  0.18358368     0.02600
H1002       H  0.63315338  0.22579514  0.21367792     0.06100
H1003       H  0.63332353  0.21325497  0.11100436     0.05100
H1004       H  0.65329655  0.19131200  0.12388793    -0.00700
H1005       H  0.64504455  0.21787442  0.14072789     0.00800
H1006       H  0.55044054  0.13920727  0.15699017     0.04500
H1007       H  0.54314433  0.16461944  0.17625906     0.06400
H1008       H  0.56355861  0.14188344  0.18627283     0.07300
C1009       C  0.46427236  0.30693798  0.26849555    -0.22400
C1010       C  0.44421303  0.32181621  0.27157613     0.09600
C1011       C  0.44712059  0.34515763  0.28067670     0.10000
C1012       C  0.47018041  0.35325211  0.28650807    -0.17300
C1013       C  0.49068220  0.33859781  0.28350662    -0.27700
C1014       C  0.48754029  0.31490429  0.27426237     0.18300
C1015       C  0.42003128  0.31188529  0.26722442     0.12300
C1016       C  0.42579236  0.36149543  0.28437466    -0.12000
H1017       H  0.47201637  0.37127515  0.29358161     0.12600
C1018       C  0.50816207  0.29769845  0.27021772    -0.22900
H1019       H  0.46158780  0.28886212  0.26175878     0.08200
C1020       C  0.40906023  0.31262376  0.24438746     0.04600
C1021       C  0.38611428  0.30246833  0.24147740    -0.20100
C1022       C  0.37435536  0.29142461  0.26090817    -0.12400
C1023       C  0.38499880  0.29169178  0.28393799     0.13300
C1024       C  0.40779011  0.30185044  0.28677153    -0.22800
C1025       C  0.42170814  0.32382177  0.22320867    -0.05900
H1026       H  0.37771824  0.30238749  0.22391176     0.14800
C1027       C  0.37217283  0.28168149  0.30566992    -0.16100
H1028       H  0.41623775  0.30187205  0.30431540     0.09100
H1029       H  0.52108633  0.30544871  0.25710441     0.07000
H1030       H  0.50198177  0.28024509  0.26279670     0.08200
H1031       H  0.51730109  0.29378039  0.28750544     0.07200
H1032       H  0.41314609  0.35329143  0.29747671     0.02100
H1033       H  0.41635760  0.36432190  0.26703809     0.02600
H1034       H  0.43123874  0.37935071  0.29138921     0.06100
H1035       H  0.41049409  0.32314436  0.20672789     0.05100
H1036       H  0.43875981  0.31405404  0.21960306    -0.00700
H1037       H  0.42582539  0.34294261  0.22709537     0.00800
H1038       H  0.36972274  0.26201250  0.30376695     0.04500
H1039       H  0.35433791  0.29048284  0.30767897     0.06400
H1040       H  0.38248555  0.28479328  0.32244853     0.07300
C1041       C  0.60633744  0.31291974  0.26048972    -0.22400
C1042       C  0.62021917  0.30499502  0.27991276     0.09600
C1043       C  0.61346829  0.31101022  0.30359482     0.10000
C1044       C  0.59270439  0.32487900  0.30736395    -0.17300
C1045       C  0.57874386  0.33267797  0.28790933    -0.27700
C1046       C  0.58567712  0.32683675  0.26417609     0.18300
C1047       C  0.64248878  0.29144905  0.27495461     0.12300
C1048       C  0.62815423  0.30265559  0.32475723    -0.12000
H1049       H  0.58723514  0.32948721  0.32548704     0.12600
C1050       C  0.57202490  0.33539549  0.24235167    -0.22900
H1051       H  0.61186034  0.30848209  0.24233047     0.08200
C1052       C  0.64236924  0.26637908  0.27164780     0.04600
C1053       C  0.66409699  0.25450064  0.26677035    -0.20100
C1054       C  0.68602723  0.26712584  0.26536204    -0.12400
C1055       C  0.68600039  0.29234190  0.26954845     0.13300
C1056       C  0.66414003  0.30412037  0.27392469    -0.22800
C1057       C  0.61935516  0.25222153  0.27351521    -0.05900
H1058       H  0.66387558  0.23522716  0.26397815     0.14800
C1059       C  0.70877585  0.30703540  0.27047708    -0.16100
H1060       H  0.66388997  0.32338209  0.27687520     0.09100
H1061       H  0.56523127  0.31964669  0.23220898     0.07000
H1062       H  0.58425018  0.34591169  0.23055961     0.08200
H1063       H  0.55649601  0.34709344  0.24676783     0.07200
H1064       H  0.64669582  0.30992861  0.32342412     0.02100
H1065       H  0.62899726  0.28271518  0.32499421     0.02600
H1066       H  0.62026841  0.30874418  0.34205516     0.06100
H1067       H  0.62246913  0.23268690  0.27080579     0.05100
H1068       H  0.60643823  0.25849963  0.25966728    -0.00700
H1069       H  0.61127193  0.25474957  0.29159514     0.00800
H1070       H  0.71737500  0.30769793  0.25249078     0.04500
H1071       H  0.72135859  0.29912872  0.28376895     0.06400
H1072       H  0.70523167  0.32589254  0.27599565     0.07300
C1073       C  0.85319236  0.39453393  0.78027409    -0.22400
C1074       C  0.86177990  0.37645793  0.79558157     0.09600
C1075       C  0.87907677  0.38201604  0.81312892     0.10000
C1076       C  0.88757789  0.40566385  0.81486763    -0.17300
C1077       C  0.87933739  0.42385731  0.79932156    -0.27700
C1078       C  0.86200132  0.41810565  0.78160236     0.18300
C1079       C  0.85208826  0.35188849  0.79293126     0.12300
C1080       C  0.88844790  0.36301549  0.83001336    -0.12000
H1081       H  0.90095717  0.40995831  0.82833826     0.12600
C1082       C  0.85337004  0.43566569  0.76289171    -0.22900
H1083       H  0.83995581  0.39001831  0.76672014     0.08200
C1084       C  0.82934504  0.34590056  0.80223068     0.04600
C1085       C  0.81963423  0.32328485  0.79722136    -0.20100
C1086       C  0.83241775  0.30603745  0.78388494    -0.12400
C1087       C  0.85582612  0.31178878  0.77541209     0.13300
C1088       C  0.86524315  0.33478704  0.77990829    -0.22800
C1089       C  0.81529601  0.36346968  0.81734662    -0.05900
H1090       H  0.80167085  0.31931746  0.80331720     0.14800
C1091       C  0.87055096  0.29442522  0.76064981    -0.16100
H1092       H  0.88276290  0.33966972  0.77286088     0.09100
H1093       H  0.83391271  0.43932549  0.76559178     0.07000
H1094       H  0.85601351  0.42787040  0.74471727     0.08200
H1095       H  0.86333404  0.45278155  0.76315794     0.07200
H1096       H  0.89733226  0.34848220  0.81961425     0.02100
H1097       H  0.87332248  0.35529022  0.84053372     0.02600
H1098       H  0.90179433  0.37045076  0.84282128     0.06100
H1099       H  0.79801146  0.35570788  0.82367916     0.05100
H1100       H  0.81120539  0.37987455  0.80673719    -0.00700
H1101       H  0.82602220  0.36851596  0.83337278     0.00800
H1102       H  0.88777371  0.30252037  0.75456967     0.04500
H1103       H  0.86036024  0.28898754  0.74440074     0.06400
H1104       H  0.87507101  0.27832459  0.77155656     0.07300
C1105       C  0.82807864  0.59338540  0.81692023    -0.22400
C1106       C  0.84766944  0.58503580  0.80338465     0.09600
C1107       C  0.85831265  0.60022389  0.78606248     0.10000
C1108       C  0.84863407  0.62318202  0.78210364    -0.17300
C1109       C  0.82819944  0.63114639  0.79458380    -0.27700
C1110       C  0.81818294  0.61633005  0.81275023     0.18300
C1111       C  0.85626804  0.55997068  0.80655543     0.12300
C1112       C  0.87941505  0.59185032  0.77121544    -0.12000
H1113       H  0.85633720  0.63452856  0.76836598     0.12600
C1114       C  0.79744956  0.62480583  0.82807950    -0.22900
H1115       H  0.82023928  0.58171904  0.83043299     0.08200
C1116       C  0.87562788  0.55437462  0.82186987     0.04600
C1117       C  0.88547856  0.53111013  0.82146238    -0.20100
C1118       C  0.87632139  0.51315112  0.80622052    -0.12400
C1119       C  0.85605222  0.51859819  0.79172264     0.13300
C1120       C  0.84632795  0.54194836  0.79212219    -0.22800
C1121       C  0.88610993  0.57309279  0.83831329    -0.05900
H1122       H  0.90075918  0.52703983  0.83283896     0.14800
C1123       C  0.84541736  0.50055384  0.77468725    -0.16100
H1124       H  0.83146594  0.54650324  0.78036712     0.09100
H1125       H  0.79301232  0.61162035  0.84241981     0.07000
H1126       H  0.78108639  0.62731114  0.81698977     0.08200
H1127       H  0.80219048  0.64207978  0.83684406     0.07200
H1128       H  0.87426935  0.57575579  0.76064922     0.02100
H1129       H  0.89473966  0.58720686  0.78309764     0.02600
H1130       H  0.88556557  0.60591178  0.75847826     0.06100
H1131       H  0.90115373  0.56574632  0.84919643     0.05100
H1132       H  0.87197385  0.57967545  0.85079861    -0.00700
H1133       H  0.89308102  0.58846026  0.82765472     0.00800
H1134       H  0.83827720  0.48496088  0.78488482     0.04500
H1135       H  0.85939849  0.49462201  0.76173978     0.06400
H1136       H  0.83028238  0.50827174  0.76417886     0.07300
C1137       C  0.80488603  0.39900578  0.67656573    -0.22400
C1138       C  0.79314710  0.38100519  0.66348948     0.09600
C1139       C  0.78554093  0.38562472  0.63978903     0.10000
C1140       C  0.78995343  0.40823355  0.62963468    -0.17300
C1141       C  0.80182613  0.42633848  0.64259096    -0.27700
C1142       C  0.80957169  0.42159615  0.66635586     0.18300
C1143       C  0.79017912  0.35702036  0.67454167     0.12300
C1144       C  0.77326324  0.36656791  0.62502362    -0.12000
H1145       H  0.78396980  0.41181482  0.61144907     0.12600
C1146       C  0.82368718  0.43970553  0.68068083    -0.22900
H1147       H  0.81078142  0.39514588  0.69472747     0.08200
C1148       C  0.81002275  0.34144912  0.67745384     0.04600
C1149       C  0.80648070  0.31888825  0.68810864    -0.20100
C1150       C  0.78355743  0.31162601  0.69579476    -0.12400
C1151       C  0.76358684  0.32687406  0.69217207     0.13300
C1152       C  0.76718261  0.34958434  0.68178938    -0.22800
C1153       C  0.83480770  0.34848278  0.66896252    -0.05900
H1154       H  0.82169202  0.30695154  0.69071132     0.14800
C1155       C  0.73843880  0.31881226  0.69833194    -0.16100
H1156       H  0.75201167  0.36155262  0.67915489     0.09100
H1157       H  0.82994529  0.43210247  0.69805400     0.07000
H1158       H  0.81230956  0.45555181  0.68483608     0.08200
H1159       H  0.83980296  0.44544437  0.67035023     0.07200
H1160       H  0.75603586  0.36131186  0.63363228     0.02100
H1161       H  0.78508333  0.35053480  0.62353116     0.02600
H1162       H  0.76918004  0.37301546  0.60657553     0.06100
H1163       H  0.84809366  0.33392204  0.67211399     0.05100
H1164       H  0.84108292  0.36463264  0.67877399    -0.00700
H1165       H  0.83439379  0.35243571  0.64940110     0.00800
H1166       H  0.73676158  0.31571539  0.71795707     0.04500
H1167       H  0.73427726  0.30188731  0.68862696     0.06400
H1168       H  0.72481613  0.33246050  0.69311133     0.07300
C1169       C  0.78137464  0.55456086  0.64629483    -0.22400
C1170       C  0.79035090  0.55722276  0.66951522     0.09600
C1171       C  0.80310210  0.53831947  0.68054621     0.10000
C1172       C  0.80719184  0.51709855  0.66758943    -0.17300
C1173       C  0.79903308  0.51465896  0.64381992    -0.27700
C1174       C  0.78556520  0.53357294  0.63320012     0.18300
C1175       C  0.78682424  0.58053421  0.68135405     0.12300
C1176       C  0.81241923  0.54067198  0.70583661    -0.12000
H1177       H  0.81719092  0.50255609  0.67587811     0.12600
C1178       C  0.77523439  0.53195183  0.60826356    -0.22900
H1179       H  0.77144314  0.56928705  0.63821774     0.08200
C1180       C  0.80358345  0.59923276  0.67822296     0.04600
C1181       C  0.79893499  0.62158797  0.68864149    -0.20100
C1182       C  0.77784673  0.62567167  0.70196535    -0.12400
C1183       C  0.76084722  0.60693111  0.70475380     0.13300
C1184       C  0.76558749  0.58451638  0.69428777    -0.22800
C1185       C  0.82623781  0.59563588  0.66372608    -0.05900
H1186       H  0.81205621  0.63586975  0.68668197     0.14800
C1187       C  0.73740125  0.61060564  0.71789877    -0.16100
H1188       H  0.75264249  0.57005283  0.69600939     0.09100
H1189       H  0.79006609  0.53254318  0.59496760     0.07000
H1190       H  0.76309967  0.54729731  0.60417785     0.08200
H1191       H  0.76462314  0.51517129  0.60631436     0.07200
H1192       H  0.79718938  0.54401587  0.71832798     0.02100
H1193       H  0.82523742  0.55590447  0.70694255     0.02600
H1194       H  0.82189071  0.52412584  0.71182153     0.06100
H1195       H  0.83736455  0.61219762  0.66309540     0.05100
H1196       H  0.82155075  0.59067755  0.64500002    -0.00700
H1197       H  0.83725283  0.58107455  0.67178991     0.00800
H1198       H  0.72561665  0.59454588  0.71667255     0.04500
H1199       H  0.72758549  0.62606365  0.70992487     0.06400
H1200       H  0.74074582  0.61398736  0.73723712     0.07300
C1201       C  0.60680686  0.79256208  0.84824013    -0.22400
C1202       C  0.61205694  0.77073048  0.83681747     0.09600
C1203       C  0.59438190  0.75250710  0.83609725     0.10000
C1204       C  0.57198498  0.75644641  0.84721039    -0.17300
C1205       C  0.56694595  0.77812238  0.85908050    -0.27700
C1206       C  0.58440201  0.79659915  0.85917612     0.18300
C1207       C  0.63632397  0.76724090  0.82610707     0.12300
C1208       C  0.59909428  0.72901213  0.82348379    -0.12000
H1209       H  0.55852419  0.74236283  0.84709073     0.12600
C1210       C  0.57982479  0.82098630  0.87004865    -0.22900
H1211       H  0.62031671  0.80659800  0.84859568     0.08200
C1212       C  0.64318614  0.77871201  0.80452291     0.04600
C1213       C  0.66633748  0.77472173  0.79514204    -0.20100
C1214       C  0.68282720  0.75944045  0.80676103    -0.12400
C1215       C  0.67568038  0.74759195  0.82818215     0.13300
C1216       C  0.65267420  0.75197586  0.83774352    -0.22800
C1217       C  0.62586492  0.79461213  0.79104678    -0.05900
H1218       H  0.67150329  0.78334047  0.77842938     0.14800
C1219       C  0.69156988  0.72924624  0.84031580    -0.16100
H1220       H  0.64717898  0.74308420  0.85420539     0.09100
H1221       H  0.58259045  0.83506341  0.85614989     0.07000
H1222       H  0.59262810  0.82409227  0.88500217     0.08200
H1223       H  0.56127735  0.82315659  0.87701868     0.07200
H1224       H  0.61440818  0.71951594  0.83205373     0.02100
H1225       H  0.60342467  0.73245352  0.80430185     0.02600
H1226       H  0.58321823  0.71693423  0.82426296     0.06100
H1227       H  0.63383039  0.80149524  0.77406295     0.05100
H1228       H  0.62082091  0.81030228  0.80226311    -0.00700
H1229       H  0.60942026  0.78428194  0.78648648     0.00800
H1230       H  0.70816906  0.73794714  0.84706535     0.04500
H1231       H  0.69639351  0.71480559  0.82741419     0.06400
H1232       H  0.68244418  0.72067730  0.85589424     0.07300
C1233       C  0.50741175  0.49286905  0.77122538    -0.22400
C1234       C  0.52563164  0.48310086  0.78555675     0.09600
C1235       C  0.54256919  0.49830427  0.79656662     0.10000
C1236       C  0.54128105  0.52309665  0.79237266    -0.17300
C1237       C  0.52345309  0.53294010  0.77742246    -0.27700
C1238       C  0.50602398  0.51762472  0.76696470     0.18300
C1239       C  0.52835320  0.45676604  0.78580809     0.12300
C1240       C  0.56201621  0.48835306  0.81257858    -0.12000
H1241       H  0.55447257  0.53483311  0.80055942     0.12600
C1242       C  0.48675909  0.52682596  0.75022744    -0.22900
H1243       H  0.49477267  0.48086896  0.76255132     0.08200
C1244       C  0.51179070  0.44167351  0.79763576     0.04600
C1245       C  0.51298830  0.41678807  0.79373573    -0.20100
C1246       C  0.53072426  0.40679301  0.77870456    -0.12400
C1247       C  0.54815451  0.42199795  0.76802300     0.13300
C1248       C  0.54649299  0.44682330  0.77150009    -0.22800
C1249       C  0.49295035  0.45187735  0.81423843    -0.05900
H1250       H  0.49985189  0.40511170  0.80218362     0.14800
C1251       C  0.56788145  0.41250839  0.75200557    -0.16100
H1252       H  0.55898703  0.45871037  0.76237898     0.09100
H1253       H  0.47416383  0.53874033  0.76010722     0.07000
H1254       H  0.47592722  0.51196161  0.74252298     0.08200
H1255       H  0.49510726  0.53678956  0.73505499     0.07200
H1256       H  0.57382573  0.47600059  0.80228318     0.02100
H1257       H  0.55371424  0.47838991  0.82777096     0.02600
H1258       H  0.57346749  0.50283600  0.82011085     0.06100
H1259       H  0.48189639  0.43750150  0.82261490     0.05100
H1260       H  0.48072625  0.46402057  0.80417367    -0.00700
H1261       H  0.50181750  0.46216893  0.82882283     0.00800
H1262       H  0.57886199  0.42722717  0.74414132     0.04500
H1263       H  0.56002918  0.40208381  0.73695081     0.06400
H1264       H  0.58021229  0.40095528  0.76261102     0.07300
C1265       C  0.59953068  0.62790004  0.73763926    -0.22400
C1266       C  0.61410659  0.63025167  0.75798370     0.09600
C1267       C  0.60725376  0.61953263  0.77991262     0.10000
C1268       C  0.58533759  0.60724300  0.78124087    -0.17300
C1269       C  0.57039166  0.60550311  0.76109258    -0.27700
C1270       C  0.57777042  0.61530627  0.73887617     0.18300
C1271       C  0.63674845  0.64370534  0.75589477     0.12300
C1272       C  0.62316169  0.62096893  0.80175473    -0.12000
H1273       H  0.57966289  0.59925600  0.79810360     0.12600
C1274       C  0.56319312  0.61167867  0.71638223    -0.22900
H1275       H  0.60532879  0.63578149  0.72076904     0.08200
C1276       C  0.65772866  0.63271072  0.74691710     0.04600
C1277       C  0.67904791  0.64597326  0.74596462    -0.20100
C1278       C  0.67972333  0.66996007  0.75366388    -0.12400
C1279       C  0.65868652  0.68084567  0.76308075     0.13300
C1280       C  0.63733935  0.66753921  0.76388326    -0.22800
C1281       C  0.65764405  0.60692340  0.73870190    -0.05900
H1282       H  0.69527841  0.63759372  0.73916952     0.14800
C1283       C  0.65884496  0.70590657  0.77342447    -0.16100
H1284       H  0.62109408  0.67557024  0.77112229     0.09100
H1285       H  0.57203712  0.61986997  0.70044203     0.07000
H1286       H  0.54516972  0.62001022  0.71843391     0.08200
H1287       H  0.56108711  0.59213560  0.71293221     0.07200
H1288       H  0.62582270  0.64004060  0.80692407     0.02100
H1289       H  0.64091268  0.61271555  0.79773502     0.02600
H1290       H  0.61520473  0.61133964  0.81734801     0.06100
H1291       H  0.67572464  0.60103570  0.73252925     0.05100
H1292       H  0.64489830  0.60476421  0.72353467    -0.00700
H1293       H  0.65202966  0.59504707  0.75374734     0.00800
H1294       H  0.64124415  0.71071312  0.78159647     0.04500
H1295       H  0.66265167  0.71928531  0.75912230     0.06400
H1296       H  0.67272913  0.70716400  0.78767483     0.07300
C1297       C  0.85793017  0.93074715  0.51237243    -0.22400
C1298       C  0.83969519  0.94231000  0.49936892     0.09600
C1299       C  0.82360444  0.92856183  0.48542411     0.10000
C1300       C  0.82628188  0.90350028  0.48463844    -0.17300
C1301       C  0.84425383  0.89187800  0.49796067    -0.27700
C1302       C  0.86027132  0.90562376  0.51205093     0.18300
C1303       C  0.83845219  0.96891289  0.49979823     0.12300
C1304       C  0.80327066  0.94025343  0.47187248    -0.12000
H1305       H  0.81387628  0.89284056  0.47409320     0.12600
C1306       C  0.88019818  0.89396293  0.52623659    -0.22900
H1307       H  0.87037590  0.94147774  0.52279137     0.08200
C1308       C  0.82972508  0.98159570  0.51989967     0.04600
C1309       C  0.82898655  0.00681950  0.51921932    -0.20100
C1310       C  0.83684705  0.01983049  0.49891354    -0.12400
C1311       C  0.84606943  0.00681289  0.47888281     0.13300
C1312       C  0.84664885  0.98159825  0.47969736    -0.22800
C1313       C  0.82088393  0.96851346  0.54193067    -0.05900
H1314       H  0.82195603  0.01636789  0.53466271     0.14800
C1315       C  0.85595147  0.01893107  0.45670600    -0.16100
H1316       H  0.85362939  0.97157582  0.46450901     0.09100
H1317       H  0.87252047  0.88222659  0.54042414     0.07000
H1318       H  0.89175687  0.90751505  0.53519742     0.08200
H1319       H  0.89172850  0.88308728  0.51408859     0.07200
H1320       H  0.81050515  0.95291508  0.45824899     0.02100
H1321       H  0.79154911  0.95022638  0.48460082     0.02600
H1322       H  0.79202817  0.92678448  0.46239727     0.06100
H1323       H  0.81422273  0.98114654  0.55587717     0.05100
H1324       H  0.83573146  0.95781326  0.54989471    -0.00700
H1325       H  0.80590808  0.95630975  0.53698942     0.00800
H1326       H  0.86381287  0.00579446  0.44388476     0.04500
H1327       H  0.87043629  0.03166760  0.46176297     0.06400
H1328       H  0.84134149  0.02848092  0.44704813     0.07300
C1329       C  0.85148130  0.80841370  0.58236391    -0.22400
C1330       C  0.82927664  0.79765551  0.58737690     0.09600
C1331       C  0.81210141  0.79497954  0.56893745     0.10000
C1332       C  0.81713720  0.80426884  0.54600992    -0.17300
C1333       C  0.83902040  0.81588627  0.54127789    -0.27700
C1334       C  0.85670229  0.81732171  0.55940807     0.18300
C1335       C  0.82452955  0.78910893  0.61206680     0.12300
C1336       C  0.78855667  0.78237815  0.57353328    -0.12000
H1337       H  0.80369679  0.80315268  0.53196592     0.12600
C1338       C  0.88134992  0.82773535  0.55501178    -0.22900
H1339       H  0.86482060  0.80985629  0.59647783     0.08200
C1340       C  0.83356335  0.76689585  0.62016680     0.04600
C1341       C  0.82830678  0.75930384  0.64358609    -0.20100
C1342       C  0.81410172  0.77334668  0.65913173    -0.12400
C1343       C  0.80514608  0.79575291  0.65093374     0.13300
C1344       C  0.81062693  0.80340175  0.62748514    -0.22800
C1345       C  0.84823520  0.75096387  0.60387683    -0.05900
H1346       H  0.83499460  0.74202833  0.64966359     0.14800
C1347       C  0.78887378  0.81108581  0.66623574    -0.16100
H1348       H  0.80371742  0.82042665  0.62094585     0.09100
H1349       H  0.89519481  0.81397620  0.55928195     0.07000
H1350       H  0.88410050  0.84356185  0.56680075     0.08200
H1351       H  0.88423450  0.83338571  0.53611704     0.07200
H1352       H  0.77824338  0.79203322  0.58763271     0.02100
H1353       H  0.79203049  0.76367747  0.57962833     0.02600
H1354       H  0.77730218  0.78158853  0.55708679     0.06100
H1355       H  0.85339321  0.73388800  0.61287061     0.05100
H1356       H  0.86496285  0.76037707  0.59839424    -0.00700
H1357       H  0.83764124  0.74644427  0.58760971     0.00800
H1358       H  0.79868919  0.81739229  0.68237032     0.04500
H1359       H  0.77296005  0.80046953  0.67185863     0.06400
H1360       H  0.78236299  0.82719556  0.65636870     0.07300
C1361       C  0.71782014  0.73243761  0.61588486    -0.22400
C1362       C  0.70131456  0.71383372  0.61221155     0.09600
C1363       C  0.69512263  0.69826290  0.63125666     0.10000
C1364       C  0.70494758  0.70226010  0.65402209    -0.17300
C1365       C  0.72172776  0.72062143  0.65765145    -0.27700
C1366       C  0.72848724  0.73581437  0.63838115     0.18300
C1367       C  0.69090085  0.71064816  0.58816976     0.12300
C1368       C  0.67907215  0.67683408  0.62725252    -0.12000
H1369       H  0.70048706  0.69027734  0.66875783     0.12600
C1370       C  0.74703146  0.75544927  0.64083641    -0.22900
H1371       H  0.72267361  0.74411068  0.60102407     0.08200
C1372       C  0.66827470  0.72042164  0.58240783     0.04600
C1373       C  0.65824110  0.71543621  0.55997487    -0.20100
C1374       C  0.67031287  0.70091287  0.54321544    -0.12400
C1375       C  0.69342783  0.69178040  0.54874831     0.13300
C1376       C  0.70344790  0.69681299  0.57129067    -0.22800
C1377       C  0.65466417  0.73591823  0.59999154    -0.05900
H1378       H  0.64075836  0.72282828  0.55554804     0.14800
C1379       C  0.70714549  0.67593733  0.53156897    -0.16100
H1380       H  0.72088670  0.68949075  0.57604673     0.09100
H1381       H  0.73903011  0.77294656  0.63547584     0.07000
H1382       H  0.76256549  0.75154915  0.62887569     0.08200
H1383       H  0.75386741  0.75736920  0.65941563     0.07200
H1384       H  0.68740930  0.66475494  0.61371971     0.02100
H1385       H  0.66120225  0.68274331  0.62065502     0.02600
H1386       H  0.67633794  0.66635125  0.64403802     0.06100
H1387       H  0.63729015  0.74225820  0.59244132     0.05100
H1388       H  0.66560193  0.75192126  0.60464852    -0.00700
H1389       H  0.65073609  0.72559025  0.61660816     0.00800
H1390       H  0.71172653  0.68614128  0.51504210     0.04500
H1391       H  0.69613277  0.66000124  0.52684315     0.06400
H1392       H  0.72427184  0.66941643  0.53951908     0.07300
C1393       C  0.72068841  0.68312351  0.38094091    -0.22400
C1394       C  0.70091493  0.69789424  0.38563361     0.09600
C1395       C  0.69405008  0.71567973  0.36899853     0.10000
C1396       C  0.70738760  0.71843556  0.34784183    -0.17300
C1397       C  0.72773926  0.70409576  0.34316947    -0.27700
C1398       C  0.73433960  0.68595622  0.35997492     0.18300
C1399       C  0.68909697  0.69586789  0.40917565     0.12300
C1400       C  0.67276839  0.73182122  0.37370152    -0.12000
H1401       H  0.70208486  0.73220027  0.33510780     0.12600
C1402       C  0.75540848  0.66922098  0.35615012    -0.22900
H1403       H  0.72575383  0.66965022  0.39410421     0.08200
C1404       C  0.67218781  0.67772043  0.41422630     0.04600
C1405       C  0.66214313  0.67643919  0.43729771    -0.20100
C1406       C  0.66859475  0.69303329  0.45518014    -0.12400
C1407       C  0.68500933  0.71167351  0.44969679     0.13300
C1408       C  0.69534551  0.71256524  0.42681651    -0.22800
C1409       C  0.66450833  0.66011232  0.39519759    -0.05900
H1410       H  0.64916368  0.66248210  0.44138984     0.14800
C1411       C  0.69077572  0.73142912  0.46727920    -0.16100
H1412       H  0.70819237  0.72657470  0.42247255     0.09100
H1413       H  0.75670654  0.65543379  0.37055143     0.07000
H1414       H  0.77250242  0.67950120  0.35638005     0.08200
H1415       H  0.75342109  0.65959440  0.33880694     0.07200
H1416       H  0.67587236  0.74254543  0.39019965     0.02100
H1417       H  0.65631955  0.72076902  0.37609990     0.02600
H1418       H  0.66963584  0.74454311  0.35862214     0.06100
H1419       H  0.65078925  0.64732659  0.40208687     0.05100
H1420       H  0.68026945  0.64957412  0.38891895    -0.00700
H1421       H  0.65663050  0.66998593  0.37973404     0.00800
H1422       H  0.70055993  0.72401850  0.48298107     0.04500
H1423       H  0.67388610  0.74024832  0.47332099     0.06400
H1424       H  0.70237929  0.74547482  0.45907960     0.07300
C1425       C  0.84805226  0.76373013  0.37494204    -0.22400
C1426       C  0.83399886  0.78232740  0.38447477     0.09600
C1427       C  0.81490215  0.79205147  0.37089282     0.10000
C1428       C  0.80976798  0.78241527  0.34823992    -0.17300
C1429       C  0.82322599  0.76320664  0.33899600    -0.27700
C1430       C  0.84298313  0.75411870  0.35219683     0.18300
C1431       C  0.83955856  0.79183846  0.40859445     0.12300
C1432       C  0.79971361  0.81232750  0.38053312    -0.12000
H1433       H  0.79469175  0.78937846  0.33802321     0.12600
C1434       C  0.85935614  0.73513857  0.34191215    -0.22900
H1435       H  0.86301417  0.75679300  0.38532490     0.08200
C1436       C  0.82871619  0.78224083  0.42938798     0.04600
C1437       C  0.83142302  0.79427364  0.45134306    -0.20100
C1438       C  0.84478434  0.81568063  0.45295360    -0.12400
C1439       C  0.85725925  0.82409578  0.43230306     0.13300
C1440       C  0.85430521  0.81209265  0.41035765    -0.22800
C1441       C  0.81388021  0.75963160  0.42823767    -0.05900
H1442       H  0.82231010  0.78735240  0.46712847     0.14800
C1443       C  0.87408040  0.84532012  0.43313857    -0.16100
H1444       H  0.86294683  0.81894845  0.39427003     0.09100
H1445       H  0.84926836  0.71835780  0.33828556     0.07000
H1446       H  0.87429581  0.73064066  0.35436211     0.08200
H1447       H  0.86736965  0.74196828  0.32499278     0.07200
H1448       H  0.81119855  0.82823192  0.38409308     0.02100
H1449       H  0.79084848  0.80665627  0.39750725     0.02600
H1450       H  0.78548824  0.81776731  0.36762818     0.06100
H1451       H  0.80669243  0.75452101  0.44616453     0.05100
H1452       H  0.82517235  0.74457376  0.42155649    -0.00700
H1453       H  0.79844584  0.76227777  0.41588439     0.00800
H1454       H  0.88766002  0.84257850  0.44749489     0.04500
H1455       H  0.86388241  0.86213261  0.43644182     0.06400
H1456       H  0.88389758  0.84769820  0.41589461     0.07300
C1457       C  0.50803765  0.79805720  0.02653876    -0.22400
C1458       C  0.52632646  0.78770552  0.01265288     0.09600
C1459       C  0.54588925  0.77640674  0.02418157     0.10000
C1460       C  0.54653289  0.77541790  0.04937556    -0.17300
C1461       C  0.52793433  0.78520232  0.06350743    -0.27700
C1462       C  0.50841333  0.79686404  0.05177290     0.18300
C1463       C  0.52425068  0.78815904  0.98603826     0.12300
C1464       C  0.56579451  0.76480725  0.00989170    -0.12000
H1465       H  0.56145535  0.76637036  0.05803398     0.12600
C1466       C  0.48806454  0.80854549  0.06540318    -0.22900
H1467       H  0.49318640  0.80685817  0.01747853     0.08200
C1468       C  0.50810217  0.77289374  0.97385501     0.04600
C1469       C  0.50750505  0.77311541  0.94862089    -0.20100
C1470       C  0.52311865  0.78778580  0.93521816    -0.12400
C1471       C  0.53896708  0.80345745  0.94750701     0.13300
C1472       C  0.53914547  0.80357544  0.97276828    -0.22800
C1473       C  0.49209526  0.75576595  0.98745927    -0.05900
H1474       H  0.49536507  0.76111405  0.93928261     0.14800
C1475       C  0.55541103  0.82042098  0.93421156    -0.16100
H1476       H  0.55128336  0.81544511  0.98227757     0.09100
H1477       H  0.47744178  0.79474785  0.07515069     0.07000
H1478       H  0.47543974  0.81809854  0.05322982     0.08200
H1479       H  0.49535362  0.82195070  0.07819880     0.07200
H1480       H  0.57511631  0.77853169  0.99879622     0.02100
H1481       H  0.55819327  0.75075786  0.99797791     0.02600
H1482       H  0.57939864  0.75619693  0.02170733     0.06100
H1483       H  0.48104666  0.74463145  0.97516242     0.05100
H1484       H  0.47967339  0.76594729  0.99930376    -0.00700
H1485       H  0.50327016  0.74349839  0.99857388     0.00800
H1486       H  0.56524276  0.83246518  0.94668590     0.04500
H1487       H  0.54475758  0.83184507  0.92177489     0.06400
H1488       H  0.56906405  0.81012215  0.92395183     0.07300
C1489       C  0.62082672  0.77787551  0.13906317    -0.22400
C1490       C  0.62091762  0.76825340  0.16228824     0.09600
C1491       C  0.59904220  0.76197055  0.17340297     0.10000
C1492       C  0.57747447  0.76535242  0.16085268    -0.17300
C1493       C  0.57714188  0.77442527  0.13715614    -0.27700
C1494       C  0.59938216  0.78068076  0.12610887     0.18300
C1495       C  0.64430693  0.76329953  0.17388033     0.12300
C1496       C  0.59847513  0.75101390  0.19820406    -0.12000
H1497       H  0.56078970  0.76032957  0.16958836     0.12600
C1498       C  0.60114518  0.79021104  0.10078874    -0.22900
H1499       H  0.63784963  0.78263168  0.13079960     0.08200
C1500       C  0.65923399  0.74452834  0.16555041     0.04600
C1501       C  0.68097565  0.73997995  0.17726453    -0.20100
C1502       C  0.68801838  0.75351286  0.19724379    -0.12400
C1503       C  0.67325785  0.77248702  0.20552171     0.13300
C1504       C  0.65154097  0.77726443  0.19356160    -0.22800
C1505       C  0.65203313  0.72886569  0.14468641    -0.05900
H1506       H  0.69235270  0.72536614  0.17112328     0.14800
C1507       C  0.68060946  0.78803575  0.22641997    -0.16100
H1508       H  0.64007448  0.79182511  0.19961797     0.09100
H1509       H  0.59489799  0.77636331  0.08791648     0.07000
H1510       H  0.61995202  0.79472474  0.09575680     0.08200
H1511       H  0.59027412  0.80685920  0.09895497     0.07200
H1512       H  0.60590182  0.76386211  0.21147585     0.02100
H1513       H  0.60934741  0.73425592  0.19844569     0.02600
H1514       H  0.57987913  0.74642857  0.20390509     0.06100
H1515       H  0.66536533  0.71435254  0.14135631     0.05100
H1516       H  0.65072832  0.73979304  0.12805409    -0.00700
H1517       H  0.63438094  0.72032867  0.14845300     0.00800
H1518       H  0.66748330  0.80276121  0.22964462     0.04500
H1519       H  0.69842060  0.79629053  0.22274033     0.06400
H1520       H  0.68168229  0.77710069  0.24307353     0.07300
C1521       C  0.51126073  0.49558458  0.29223520    -0.22400
C1522       C  0.53222749  0.48684090  0.30306634     0.09600
C1523       C  0.54990662  0.50307366  0.31108211     0.10000
C1524       C  0.54656952  0.52776147  0.30716085    -0.17300
C1525       C  0.52587667  0.53660291  0.29557152    -0.27700
C1526       C  0.50759015  0.52024617  0.28869704     0.18300
C1527       C  0.53559216  0.46049552  0.30440251     0.12300
C1528       C  0.57222769  0.49437905  0.32373079    -0.12000
H1529       H  0.56041809  0.54020889  0.31284219     0.12600
C1530       C  0.48455038  0.52822989  0.27681108    -0.22900
H1531       H  0.49786325  0.48288171  0.28605582     0.08200
C1532       C  0.52096776  0.44600063  0.31924133     0.04600
C1533       C  0.52266679  0.42091491  0.31745894    -0.20100
C1534       C  0.53892745  0.41004601  0.30149193    -0.12400
C1535       C  0.55414244  0.42462173  0.28718769     0.13300
C1536       C  0.55215431  0.44970349  0.28875634    -0.22800
C1537       C  0.50361227  0.45698832  0.33693515    -0.05900
H1538       H  0.51101499  0.40968995  0.32835309     0.14800
C1539       C  0.57153005  0.41395676  0.26930248    -0.16100
H1540       H  0.56302511  0.46100490  0.27715457     0.09100
H1541       H  0.47405622  0.53973205  0.28930222     0.07000
H1542       H  0.47293388  0.51275611  0.27197195     0.08200
H1543       H  0.48861777  0.53824962  0.26002235     0.07200
H1544       H  0.58297989  0.48277480  0.31158291     0.02100
H1545       H  0.56708844  0.48394847  0.33997037     0.02600
H1546       H  0.58381929  0.50956003  0.32947603     0.06100
H1547       H  0.49417386  0.44304108  0.34768221     0.05100
H1548       H  0.48976488  0.46769293  0.32737418    -0.00700
H1549       H  0.51353902  0.46884451  0.34950367     0.00800
H1550       H  0.56173495  0.40226240  0.25647613     0.04500
H1551       H  0.58543165  0.40327119  0.27882851     0.06400
H1552       H  0.58096841  0.42807228  0.25877189     0.07300
C1553       C  0.59406392  0.64168696  0.25419815    -0.22400
C1554       C  0.61487645  0.62908090  0.26057268     0.09600
C1555       C  0.61313818  0.60625159  0.27119582     0.10000
C1556       C  0.59044191  0.59654679  0.27568307    -0.17300
C1557       C  0.56917274  0.60911479  0.26993058    -0.27700
C1558       C  0.57111738  0.63206342  0.25864582     0.18300
C1559       C  0.63847572  0.64058321  0.25750777     0.12300
C1560       C  0.63532797  0.59219327  0.27799960    -0.12000
H1561       H  0.58951729  0.57902630  0.28413562     0.12600
C1562       C  0.54954927  0.64669882  0.25107285    -0.22900
H1563       H  0.59586065  0.65930230  0.24602106     0.08200
C1564       C  0.65148924  0.63883754  0.23583514     0.04600
C1565       C  0.67444025  0.64909314  0.23444701    -0.20100
C1566       C  0.68443699  0.66095098  0.25424184    -0.12400
C1567       C  0.67172415  0.66178801  0.27627012     0.13300
C1568       C  0.64869786  0.65180979  0.27750027    -0.22800
C1569       C  0.64122172  0.62605010  0.21436007    -0.05900
H1570       H  0.68442932  0.64823770  0.21778646     0.14800
C1571       C  0.68269870  0.67219564  0.29876272    -0.16100
H1572       H  0.63871703  0.65234837  0.29424986     0.09100
H1573       H  0.53845542  0.63629108  0.23820441     0.07000
H1574       H  0.55487041  0.66367462  0.24197094     0.08200
H1575       H  0.53869412  0.65173011  0.26705094     0.07200
H1576       H  0.64588811  0.60231450  0.29151873     0.02100
H1577       H  0.64663580  0.58913282  0.26182850     0.02600
H1578       H  0.63076446  0.57440242  0.28584243     0.06100
H1579       H  0.65391998  0.62617310  0.19892272     0.05100
H1580       H  0.62431486  0.63500743  0.20864874    -0.00700
H1581       H  0.63732966  0.60704721  0.21906591     0.00800
H1582       H  0.68547889  0.69181641  0.29670025     0.04500
H1583       H  0.70019369  0.66327932  0.30249197     0.06400
H1584       H  0.67092303  0.66949311  0.31468442     0.07300
C1585       C  0.86275036  0.59119490  0.21081420    -0.22400
C1586       C  0.85074664  0.57594861  0.19486698     0.09600
C1587       C  0.82869102  0.58318706  0.18467830     0.10000
C1588       C  0.81923872  0.60583705  0.19055667    -0.17300
C1589       C  0.83135098  0.62127438  0.20644001    -0.27700
C1590       C  0.85332664  0.61374053  0.21685532     0.18300
C1591       C  0.86135262  0.55204937  0.19019922     0.12300
C1592       C  0.81519981  0.56704458  0.16769459    -0.12000
H1593       H  0.80221746  0.61145742  0.18288740     0.12600
C1594       C  0.86631558  0.62869837  0.23532261    -0.22900
H1595       H  0.87942909  0.58515609  0.21890858     0.08200
C1596       C  0.88210531  0.54938438  0.17588648     0.04600
C1597       C  0.89312670  0.52677882  0.17423463    -0.20100
C1598       C  0.88405063  0.50677808  0.18678234    -0.12400
C1599       C  0.86280935  0.50948197  0.20078613     0.13300
C1600       C  0.85176887  0.53212647  0.20220463    -0.22800
C1601       C  0.89276101  0.57046454  0.16259404    -0.05900
H1602       H  0.90921725  0.52483295  0.16337972     0.14800
C1603       C  0.85221444  0.48917091  0.21533614    -0.16100
H1604       H  0.83597521  0.53455776  0.21340638     0.09100
H1605       H  0.87276109  0.64568578  0.22708465     0.07000
H1606       H  0.88226843  0.61918967  0.24268706     0.08200
H1607       H  0.85406587  0.63279321  0.25056984     0.07200
H1608       H  0.81021792  0.55007585  0.17695255     0.02100
H1609       H  0.82668705  0.56281489  0.15191621     0.02600
H1610       H  0.79840342  0.57563701  0.16111046     0.06100
H1611       H  0.90868552  0.56512600  0.15175962     0.05100
H1612       H  0.89859015  0.58443570  0.17553269    -0.00700
H1613       H  0.87912433  0.57823955  0.15026520     0.00800
H1614       H  0.83660690  0.49517784  0.22628863     0.04500
H1615       H  0.86593810  0.48185845  0.22785098     0.06400
H1616       H  0.84568305  0.47478087  0.20323251     0.07300
C1617       C  0.85655522  0.38938142  0.18445662    -0.22400
C1618       C  0.86624643  0.37383362  0.20172809     0.09600
C1619       C  0.88712725  0.38046211  0.21440429     0.10000
C1620       C  0.89784797  0.40274110  0.20961769    -0.17300
C1621       C  0.88806450  0.41854124  0.19253162    -0.27700
C1622       C  0.86720098  0.41175424  0.17968168     0.18300
C1623       C  0.85401953  0.35081659  0.20670216     0.12300
C1624       C  0.89801600  0.36401150  0.23298667    -0.12000
H1625       H  0.91375988  0.40800904  0.21951808     0.12600
C1626       C  0.85656255  0.42756639  0.16040294    -0.22900
H1627       H  0.84054350  0.38398532  0.17478637     0.08200
C1628       C  0.83618538  0.34912858  0.22462659     0.04600
C1629       C  0.82617564  0.32666002  0.22990745    -0.20100
C1630       C  0.83317978  0.30592114  0.21729894    -0.12400
C1631       C  0.85033281  0.30784871  0.19857164     0.13300
C1632       C  0.86074800  0.33033610  0.19367427    -0.22800
C1633       C  0.82759715  0.37106552  0.23800785    -0.05900
H1634       H  0.81281881  0.32525713  0.24405977     0.14800
C1635       C  0.85694848  0.28662206  0.18309506    -0.16100
H1636       H  0.87418498  0.33201208  0.17963307     0.09100
H1637       H  0.84126778  0.41867804  0.15119678     0.07000
H1638       H  0.87045984  0.43175593  0.14666975     0.08200
H1639       H  0.84967363  0.44449429  0.16835243     0.07200
H1640       H  0.90318393  0.34671028  0.22449872     0.02100
H1641       H  0.88478968  0.36047236  0.24752866     0.02600
H1642       H  0.91434754  0.37196287  0.24122671     0.06100
H1643       H  0.81351041  0.36653283  0.25145006     0.05100
H1644       H  0.81984052  0.38419104  0.22510887    -0.00700
H1645       H  0.84284156  0.37957533  0.24760449     0.00800
H1646       H  0.86944466  0.29180737  0.16837875     0.04500
H1647       H  0.84048847  0.27900708  0.17478551     0.06400
H1648       H  0.86599136  0.27260955  0.19404168     0.07300
C1649       C  0.78302959  0.45832292  0.48572936    -0.22400
C1650       C  0.80471008  0.46934049  0.49209216     0.09600
C1651       C  0.81992538  0.47893618  0.47425831     0.10000
C1652       C  0.81265628  0.47791633  0.45017591    -0.17300
C1653       C  0.79074114  0.46719508  0.44383469    -0.27700
C1654       C  0.77585988  0.45702198  0.46172638     0.18300
C1655       C  0.80987710  0.47204525  0.51781695     0.12300
C1656       C  0.84358037  0.49033460  0.48073855    -0.12000
H1657       H  0.82416497  0.48525630  0.43624017     0.12600
C1658       C  0.75206739  0.44555178  0.45569907    -0.22900
H1659       H  0.77149099  0.45112443  0.49972288     0.08200
C1660       C  0.79875085  0.49044392  0.53109867     0.04600
C1661       C  0.80059107  0.49019390  0.55609351    -0.20100
C1662       C  0.81346541  0.47209929  0.56816888    -0.12400
C1663       C  0.82599880  0.45453438  0.55459104     0.13300
C1664       C  0.82386688  0.45466456  0.52946419    -0.22800
C1665       C  0.78444560  0.51000643  0.51889142    -0.05900
H1666       H  0.79087959  0.50360603  0.56621295     0.14800
C1667       C  0.84181124  0.43584545  0.56624657    -0.16100
H1668       H  0.83251069  0.44076314  0.51888574     0.09100
H1669       H  0.74221450  0.43979039  0.47210221     0.07000
H1670       H  0.75494844  0.42938559  0.44443280     0.08200
H1671       H  0.74057997  0.45859166  0.44585925     0.07200
H1672       H  0.85515044  0.47697466  0.49004282     0.02100
H1673       H  0.84045222  0.50587489  0.49283653     0.02600
H1674       H  0.85335551  0.49684106  0.46457095     0.06100
H1675       H  0.77716356  0.52318947  0.53199588     0.05100
H1676       H  0.76906144  0.50208962  0.50900825    -0.00700
H1677       H  0.79615496  0.51984549  0.50604025     0.00800
H1678       H  0.83083371  0.42318900  0.57706541     0.04500
H1679       H  0.85531554  0.44476341  0.57788112     0.06400
H1680       H  0.85168233  0.42502282  0.55266863     0.07300
C1681       C  0.78721117  0.53042290  0.33139079    -0.22400
C1682       C  0.77546951  0.55051539  0.34098305     0.09600
C1683       C  0.76335373  0.54861232  0.36317446     0.10000
C1684       C  0.76405256  0.52672796  0.37578925    -0.17300
C1685       C  0.77590712  0.50650069  0.36628583    -0.27700
C1686       C  0.78737772  0.50832707  0.34361218     0.18300
C1687       C  0.77617625  0.57337580  0.32736573     0.12300
C1688       C  0.74957972  0.56961379  0.37335740    -0.12000
H1689       H  0.75512822  0.52532736  0.39306938     0.12600
C1690       C  0.80050004  0.48737356  0.33250529    -0.22900
H1691       H  0.79634855  0.53211502  0.31424726     0.08200
C1692       C  0.79456268  0.59036415  0.33108985     0.04600
C1693       C  0.79487225  0.61145477  0.31728516    -0.20100
C1694       C  0.77711890  0.61614307  0.29989675    -0.12400
C1695       C  0.75845475  0.59908242  0.29643401     0.13300
C1696       C  0.75839918  0.57783694  0.31014030    -0.22800
C1697       C  0.81383563  0.58625994  0.34965839    -0.05900
H1698       H  0.80918278  0.62436125  0.32008748     0.14800
C1699       C  0.73804730  0.60334062  0.27910633    -0.16100
H1700       H  0.74431743  0.56463327  0.30755672     0.09100
H1701       H  0.80960587  0.49250470  0.31547866     0.07000
H1702       H  0.78758868  0.47280251  0.32824579     0.08200
H1703       H  0.81442129  0.48056190  0.34508291     0.07200
H1704       H  0.73513521  0.57498329  0.36067459     0.02100
H1705       H  0.76181761  0.58509463  0.37614872     0.02600
H1706       H  0.74109043  0.56510084  0.39086940     0.06100
H1707       H  0.82694558  0.60130587  0.35014176     0.05100
H1708       H  0.82382344  0.56947929  0.34551580    -0.00700
H1709       H  0.80556042  0.58465429  0.36774707     0.00800
H1710       H  0.74493185  0.60378998  0.26039022     0.04500
H1711       H  0.72890273  0.62057378  0.28340385     0.06400
H1712       H  0.72436965  0.58882912  0.28009184     0.07300
C1713       C  0.78222294  0.37462704  0.37132918    -0.22400
C1714       C  0.77171578  0.37341982  0.34860240     0.09600
C1715       C  0.76098690  0.39404197  0.33854770     0.10000
C1716       C  0.76235389  0.41595400  0.35088743    -0.17300
C1717       C  0.77375234  0.41768313  0.37338162    -0.27700
C1718       C  0.78331187  0.39635925  0.38403593     0.18300
C1719       C  0.77317456  0.35056973  0.33517836     0.12300
C1720       C  0.74792339  0.39283031  0.31488226    -0.12000
H1721       H  0.75445794  0.43183678  0.34280834     0.12600
C1722       C  0.79534303  0.39596374  0.40833955    -0.22900
H1723       H  0.79007722  0.35846430  0.37891997     0.08200
C1724       C  0.79128472  0.34678443  0.31777536     0.04600
C1725       C  0.79169734  0.32509826  0.30497766    -0.20100
C1726       C  0.77491086  0.30691815  0.30980505    -0.12400
C1727       C  0.75709181  0.31050238  0.32761941     0.13300
C1728       C  0.75647083  0.33236815  0.34012691    -0.22800
C1729       C  0.81053927  0.36533172  0.31323490    -0.05900
H1730       H  0.80547102  0.32208655  0.29148943     0.14800
C1731       C  0.73824047  0.29190932  0.33352106    -0.16100
H1732       H  0.74276842  0.33532515  0.35369824     0.09100
H1733       H  0.80226354  0.37781403  0.41302424     0.07000
H1734       H  0.78222552  0.40097480  0.42252207     0.08200
H1735       H  0.81091332  0.40843607  0.40845767     0.07200
H1736       H  0.73283901  0.37983990  0.31629772     0.02100
H1737       H  0.76030816  0.38688602  0.30042245     0.02600
H1738       H  0.74038444  0.41057268  0.30964272     0.06100
H1739       H  0.82342027  0.35938977  0.29916288     0.05100
H1740       H  0.82078356  0.36852639  0.33003457    -0.00700
H1741       H  0.80237778  0.38251169  0.30723258     0.00800
H1742       H  0.74004035  0.28630977  0.35258981     0.04500
H1743       H  0.73955725  0.27561628  0.32216234     0.06400
H1744       H  0.72005769  0.29974418  0.33082673     0.07300
C1745       C  0.41205701  0.66224232  0.73597422    -0.22400
C1746       C  0.41509899  0.64587807  0.75484128     0.09600
C1747       C  0.39633629  0.64181322  0.77133771     0.10000
C1748       C  0.37461256  0.65412835  0.76841747    -0.17300
C1749       C  0.37125497  0.67047785  0.74940945    -0.27700
C1750       C  0.39034912  0.67473600  0.73301010     0.18300
C1751       C  0.43811606  0.63299573  0.75687772     0.12300
C1752       C  0.39923727  0.62442631  0.79193114    -0.12000
H1753       H  0.36023232  0.65112619  0.78125635     0.12600
C1754       C  0.38795929  0.69179666  0.71203739    -0.22900
H1755       H  0.42676425  0.66513788  0.72348455     0.08200
C1756       C  0.44202091  0.61115560  0.74470812     0.04600
C1757       C  0.46417470  0.59946512  0.74726983    -0.20100
C1758       C  0.48237016  0.60921624  0.76170296    -0.12400
C1759       C  0.47823606  0.63091679  0.77423273     0.13300
C1760       C  0.45610239  0.64266643  0.77150828    -0.22800
C1761       C  0.42273771  0.60016893  0.72924128    -0.05900
H1762       H  0.46734944  0.58265839  0.73794577     0.14800
C1763       C  0.49656110  0.64111426  0.79132594    -0.16100
H1764       H  0.45263610  0.65930196  0.78103374     0.09100
H1765       H  0.40412237  0.69140619  0.70028273     0.07000
H1766       H  0.38588923  0.71051894  0.71856476     0.08200
H1767       H  0.37218779  0.68675004  0.70092506     0.07200
H1768       H  0.41441962  0.63015582  0.80350204     0.02100
H1769       H  0.40295595  0.60613412  0.78490444     0.02600
H1770       H  0.38278556  0.62351554  0.80325246     0.06100
H1771       H  0.42873197  0.58293619  0.72113938     0.05100
H1772       H  0.41798120  0.61271611  0.71445968    -0.00700
H1773       H  0.40645756  0.59653567  0.74023257     0.00800
H1774       H  0.48966050  0.65735137  0.80067321     0.04500
H1775       H  0.51305893  0.64636053  0.78139495     0.06400
H1776       H  0.50114848  0.62749404  0.80519933     0.07300
C1777       C  0.45133505  0.78717278  0.82564031    -0.22400
C1778       C  0.43294572  0.77400904  0.83675880     0.09600
C1779       C  0.43715640  0.76307467  0.85922631     0.10000
C1780       C  0.45951175  0.76610945  0.87046712    -0.17300
C1781       C  0.47818407  0.77903168  0.85935225    -0.27700
C1782       C  0.47403316  0.78964641  0.83650658     0.18300
C1783       C  0.41002905  0.77012749  0.82378951     0.12300
C1784       C  0.41817641  0.74777074  0.87107799    -0.12000
H1785       H  0.46265271  0.75773643  0.88778140     0.12600
C1786       C  0.49314097  0.80394513  0.82361810    -0.22900
H1787       H  0.44800175  0.79516406  0.80817898     0.08200
C1788       C  0.39026660  0.78596074  0.82598442     0.04600
C1789       C  0.36849709  0.78039952  0.81436050    -0.20100
C1790       C  0.36633920  0.75952654  0.80040143    -0.12400
C1791       C  0.38633498  0.74384625  0.79813217     0.13300
C1792       C  0.40787010  0.74937279  0.80986569    -0.22800
C1793       C  0.39218964  0.80854210  0.84069339    -0.05900
H1794       H  0.35322214  0.79241896  0.81599314     0.14800
C1795       C  0.38492783  0.72080993  0.78399264    -0.16100
H1796       H  0.42311212  0.73727223  0.80844601     0.09100
H1797       H  0.49955135  0.81876134  0.83529944     0.07000
H1798       H  0.48622397  0.81202968  0.80671982     0.08200
H1799       H  0.50844092  0.79210416  0.81870289     0.07200
H1800       H  0.41377278  0.73225442  0.85936742     0.02100
H1801       H  0.40166110  0.75857791  0.87414107     0.02600
H1802       H  0.42431580  0.74061582  0.88867164     0.06100
H1803       H  0.37513778  0.81896808  0.84052875     0.05100
H1804       H  0.40667898  0.82013341  0.83330900    -0.00700
H1805       H  0.39648226  0.80389032  0.85961038     0.00800
H1806       H  0.38255395  0.72495603  0.76466005     0.04500
H1807       H  0.36965925  0.70974341  0.79057961     0.06400
H1808       H  0.40158655  0.70989717  0.78571090     0.07300
C1809       C  0.04257596  0.46016474  0.78043630    -0.22400
C1810       C  0.03121451  0.47348545  0.79855464     0.09600
C1811       C  0.04519822  0.48736874  0.81445065     0.10000
C1812       C  0.07031062  0.48784189  0.81166748    -0.17300
C1813       C  0.08182714  0.47429872  0.79372546    -0.27700
C1814       C  0.06773160  0.46037745  0.77778609     0.18300
C1815       C  0.00459701  0.47284568  0.80032512     0.12300
C1816       C  0.03366419  0.50126266  0.83464638    -0.12000
H1817       H  0.08108040  0.49842500  0.82393324     0.12600
C1818       C  0.07894563  0.44645961  0.75742071    -0.22900
H1819       H  0.03164445  0.44966531  0.76823829     0.08200
C1820       C  0.99023427  0.49070019  0.78945850     0.04600
C1821       C  0.96511780  0.48944798  0.79163359    -0.20100
C1822       C  0.95388321  0.47025885  0.80364958    -0.12400
C1823       C  0.96839622  0.45204112  0.81418516     0.13300
C1824       C  0.99358764  0.45376309  0.81255830    -0.22800
C1825       C  0.00138539  0.51067427  0.77491960    -0.05900
H1826       H  0.95415126  0.50319796  0.78321950     0.14800
C1827       C  0.95768943  0.43097807  0.82753927    -0.16100
H1828       H  0.00481790  0.44003264  0.82066409     0.09100
H1829       H  0.06510859  0.43797909  0.74583613     0.07000
H1830       H  0.09053145  0.43188028  0.76456985     0.08200
H1831       H  0.08984627  0.45872083  0.74602037     0.07200
H1832       H  0.02374581  0.48873479  0.84662837     0.02100
H1833       H  0.02089956  0.51476292  0.82740143     0.02600
H1834       H  0.04723994  0.51091056  0.84560330     0.06100
H1835       H  0.98753636  0.52280158  0.76715750     0.05100
H1836       H  0.01199286  0.50292525  0.75988469    -0.00700
H1837       H  0.01343987  0.52163723  0.78633077     0.00800
H1838       H  0.94764528  0.41927343  0.81495141     0.04500
H1839       H  0.94547723  0.43749436  0.84193678     0.06400
H1840       H  0.97177754  0.41967350  0.83607762     0.07300
C1841       C  0.19144755  0.60564008  0.80446004    -0.22400
C1842       C  0.19946140  0.58510866  0.79221888     0.09600
C1843       C  0.21887255  0.58693618  0.77598126     0.10000
C1844       C  0.22997726  0.60925265  0.77249260    -0.17300
C1845       C  0.22157834  0.63007032  0.78409375    -0.27700
C1846       C  0.20204064  0.62824001  0.80036789     0.18300
C1847       C  0.18523304  0.56269796  0.79408163     0.12300
C1848       C  0.22724751  0.56557986  0.76156293    -0.12000
H1849       H  0.24469687  0.61064095  0.75975230     0.12600
C1850       C  0.19227419  0.64986381  0.81345211    -0.22900
H1851       H  0.17624820  0.60408394  0.81658978     0.08200
C1852       C  0.19101982  0.54410779  0.81035997     0.04600
C1853       C  0.17726062  0.52288328  0.81029325    -0.20100
C1854       C  0.15779269  0.52002167  0.79444016    -0.12400
C1855       C  0.15200252  0.53886002  0.77832245     0.13300
C1856       C  0.16578051  0.55994217  0.77842195    -0.22800
C1857       C  0.21170563  0.54664886  0.82760288    -0.05900
H1858       H  0.18173621  0.50843286  0.82259633     0.14800
C1859       C  0.13208151  0.53647973  0.76015776    -0.16100
H1860       H  0.16165069  0.57429517  0.76587706     0.09100
H1861       H  0.17793956  0.64480393  0.82643311     0.07000
H1862       H  0.18427258  0.66271785  0.80045423     0.08200
H1863       H  0.20692410  0.65881772  0.82358579     0.07200
H1864       H  0.21227774  0.55883956  0.75026173     0.02100
H1865       H  0.23331002  0.55102372  0.77378283     0.02600
H1866       H  0.24246152  0.57026320  0.74946042     0.06100
H1867       H  0.21361078  0.53054940  0.83928390     0.05100
H1868       H  0.20874795  0.56253428  0.83929219    -0.00700
H1869       H  0.22876548  0.54904491  0.81750965     0.00800
H1870       H  0.11447903  0.53497361  0.76944760     0.04500
H1871       H  0.13517394  0.52031873  0.74888078     0.06400
H1872       H  0.13114455  0.55233766  0.74803641     0.07300
C1873       C  0.28518387  0.58873762  0.67965293    -0.22400
C1874       C  0.26158462  0.58031189  0.67707737     0.09600
C1875       C  0.24208856  0.59376701  0.68620107     0.10000
C1876       C  0.24663039  0.61603115  0.69685535    -0.17300
C1877       C  0.27015361  0.62480300  0.69867567    -0.27700
C1878       C  0.28972024  0.61095784  0.69048485     0.18300
C1879       C  0.25756051  0.55803237  0.66351037     0.12300
C1880       C  0.21656088  0.58490324  0.68424800    -0.12000
H1881       H  0.23180075  0.62673114  0.70369052     0.12600
C1882       C  0.31517254  0.61994812  0.69254680    -0.22900
H1883       H  0.29998279  0.57810664  0.67269208     0.08200
C1884       C  0.25832338  0.55797068  0.63824798     0.04600
C1885       C  0.25298690  0.53676698  0.62596910    -0.20100
C1886       C  0.24716633  0.51544024  0.63831843    -0.12400
C1887       C  0.24758657  0.51539882  0.66390245     0.13300
C1888       C  0.25253513  0.53686884  0.67607765    -0.22800
C1889       C  0.26445823  0.58036623  0.62422704    -0.05900
H1890       H  0.25345344  0.53695971  0.60650886     0.14800
C1891       C  0.24264095  0.49324424  0.67877686    -0.16100
H1892       H  0.25240868  0.53726430  0.69555772     0.09100
H1893       H  0.32825633  0.60706396  0.68466837     0.07000
H1894       H  0.31984977  0.62253700  0.71175012     0.08200
H1895       H  0.31698518  0.63734825  0.68290465     0.07200
H1896       H  0.21464041  0.56760582  0.69403137     0.02100
H1897       H  0.21183048  0.58222717  0.66506786     0.02600
H1898       H  0.20354859  0.59787747  0.69211433     0.06100
H1899       H  0.26396960  0.57720145  0.60453552     0.05100
H1900       H  0.28285720  0.58647032  0.62890948    -0.00700
H1901       H  0.25137322  0.59482996  0.62853038     0.00800
H1902       H  0.25667831  0.47945628  0.67534747     0.04500
H1903       H  0.22456771  0.48600313  0.67445987     0.06400
H1904       H  0.24297699  0.49713696  0.69834330     0.07300
C1905       C  0.21409943  0.80303824  0.57028140    -0.22400
C1906       C  0.22942297  0.81419817  0.58675171     0.09600
C1907       C  0.24067244  0.83606858  0.58068828     0.10000
C1908       C  0.23610608  0.84648516  0.55818719    -0.17300
C1909       C  0.22079202  0.83535910  0.54151091    -0.27700
C1910       C  0.20967231  0.81324457  0.54764626     0.18300
C1911       C  0.23410274  0.80201495  0.60987715     0.12300
C1912       C  0.25753296  0.84831517  0.59791687    -0.12000
H1913       H  0.24481208  0.86327071  0.55346336     0.12600
C1914       C  0.19265294  0.80055359  0.53085632    -0.22900
H1915       H  0.20567938  0.78615253  0.57518278     0.08200
C1916       C  0.21942830  0.80592368  0.63018884     0.04600
C1917       C  0.22422281  0.79325007  0.65147492    -0.20100
C1918       C  0.24300516  0.77639032  0.65265013    -0.12400
C1919       C  0.25781229  0.77264860  0.63221724     0.13300
C1920       C  0.25314233  0.78559196  0.61109567    -0.22800
C1921       C  0.19862920  0.82327003  0.62928143    -0.05900
H1922       H  0.21303762  0.79622663  0.66716901     0.14800
C1923       C  0.27900145  0.75566977  0.63268761    -0.16100
H1924       H  0.26430857  0.78283231  0.59534384     0.09100
H1925       H  0.17785550  0.81288587  0.52557031     0.07000
H1926       H  0.18445611  0.78445773  0.53939776     0.08200
H1927       H  0.20243902  0.79432962  0.51462842     0.07200
H1928       H  0.27282985  0.83620295  0.60218862     0.02100
H1929       H  0.24784432  0.85283627  0.61476574     0.02600
H1930       H  0.26493935  0.86521163  0.59025413     0.06100
H1931       H  0.18894711  0.82414640  0.64673410     0.05100
H1932       H  0.18565031  0.81750254  0.61530228    -0.00700
H1933       H  0.20524027  0.84157163  0.62488236     0.00800
H1934       H  0.27273036  0.73692837  0.63531250     0.04500
H1935       H  0.29142592  0.76071871  0.64743573     0.06400
H1936       H  0.28933207  0.75616247  0.61558729     0.07300
C1937       C  0.50747436  0.69185895  0.47908191    -0.22400
C1938       C  0.51833610  0.67719896  0.49638919     0.09600
C1939       C  0.50411820  0.66413569  0.51279404     0.10000
C1940       C  0.47907140  0.66592230  0.51137139    -0.17300
C1941       C  0.46807152  0.68116048  0.49452732    -0.27700
C1942       C  0.48245369  0.69433885  0.47811449     0.18300
C1943       C  0.54466027  0.67786952  0.49843875     0.12300
C1944       C  0.51535855  0.64893727  0.53220230    -0.12000
H1945       H  0.46801162  0.65603868  0.52404318     0.12600
C1946       C  0.47186639  0.71230404  0.46075559    -0.22900
H1947       H  0.51874691  0.70222735  0.46699154     0.08200
C1948       C  0.55964126  0.66606636  0.48181114     0.04600
C1949       C  0.58456245  0.66869261  0.48378369    -0.20100
C1950       C  0.59475908  0.68321741  0.50171114    -0.12400
C1951       C  0.57953470  0.69507969  0.51840376     0.13300
C1952       C  0.55463888  0.69209665  0.51653016    -0.22800
C1953       C  0.54934773  0.65095659  0.46189588    -0.05900
H1954       H  0.59614372  0.65962720  0.47098228     0.14800
C1955       C  0.58899066  0.71183191  0.53745080    -0.16100
H1956       H  0.54274495  0.70140777  0.52887445     0.09100
H1957       H  0.46037862  0.70300086  0.44742316     0.07000
H1958       H  0.48604066  0.72211336  0.45063645     0.08200
H1959       H  0.46104865  0.72581478  0.47072444     0.07200
H1960       H  0.52603293  0.66044801  0.54445995     0.02100
H1961       H  0.52732046  0.63521284  0.52400644     0.02600
H1962       H  0.50155162  0.63951425  0.54315683     0.06100
H1963       H  0.56369997  0.64272568  0.45068203     0.05100
H1964       H  0.53797767  0.66224755  0.44999956    -0.00700
H1965       H  0.53825317  0.63627944  0.46964686     0.00800
H1966       H  0.59995913  0.72622550  0.52899903     0.04500
H1967       H  0.59996056  0.70165029  0.55063285     0.06400
H1968       H  0.57421264  0.72065343  0.54761662     0.07300
C1969       C  0.39170626  0.69103965  0.58727421    -0.22400
C1970       C  0.37276537  0.70766635  0.58765502     0.09600
C1971       C  0.36660404  0.72029411  0.56663721     0.10000
C1972       C  0.37879185  0.71514598  0.54527888    -0.17300
C1973       C  0.39718786  0.69781146  0.54440323    -0.27700
C1974       C  0.40424565  0.68605863  0.56591261     0.18300
C1975       C  0.35869391  0.71067735  0.60993454     0.12300
C1976       C  0.34700143  0.73902743  0.56670758    -0.12000
H1977       H  0.37390028  0.72485196  0.52914911     0.12600
C1978       C  0.42433910  0.66783814  0.56653273    -0.22900
H1979       H  0.39637756  0.68165744  0.60370852     0.08200
C1980       C  0.33872117  0.69591713  0.61480850     0.04600
C1981       C  0.32570539  0.69932566  0.63607953    -0.20100
C1982       C  0.33213931  0.71722215  0.65267107    -0.12400
C1983       C  0.35207403  0.73240738  0.64738274     0.13300
C1984       C  0.36508371  0.72880733  0.62604614    -0.22800
C1985       C  0.33113243  0.67658777  0.59748143    -0.05900
H1986       H  0.31056093  0.68766449  0.63986361     0.14800
C1987       C  0.35956636  0.75282070  0.66355299    -0.16100
H1988       H  0.38031825  0.74021350  0.62180896     0.09100
H1989       H  0.42639635  0.65969059  0.58465037     0.07000
H1990       H  0.44167007  0.67661948  0.56196452     0.08200
H1991       H  0.42062059  0.65313017  0.55361225     0.07200
H1992       H  0.35168889  0.75359609  0.57946743     0.02100
H1993       H  0.32969435  0.73078078  0.57227412     0.02600
H1994       H  0.34448512  0.74720290  0.54865982     0.06100
H1995       H  0.31507289  0.66666792  0.60402315     0.05100
H1996       H  0.34599712  0.66347064  0.59504585    -0.00700
H1997       H  0.32662543  0.68474999  0.57983814     0.00800
H1998       H  0.37420324  0.76373519  0.65543049     0.04500
H1999       H  0.36649026  0.74568997  0.68084418     0.06400
H2000       H  0.34404762  0.76498301  0.66682822     0.07300
C2001       C  0.41094880  0.28493852  0.72858556    -0.22400
C2002       C  0.41491168  0.30248227  0.74608030     0.09600
C2003       C  0.39613728  0.30953813  0.76155165     0.10000
C2004       C  0.37390394  0.29796733  0.75991904    -0.17300
C2005       C  0.36999907  0.27960731  0.74305047    -0.27700
C2006       C  0.38862220  0.27345326  0.72667835     0.18300
C2007       C  0.43902914  0.31302964  0.74831954     0.12300
C2008       C  0.39972351  0.32897353  0.78004095    -0.12000
H2009       H  0.35970266  0.30289913  0.77234680     0.12600
C2010       C  0.38510947  0.25539510  0.70677719    -0.22900
H2011       H  0.42551574  0.28008698  0.71654896     0.08200
C2012       C  0.45735505  0.30110738  0.76111705     0.04600
C2013       C  0.47928300  0.31282110  0.76470805    -0.20100
C2014       C  0.48322528  0.33609650  0.75575879    -0.12400
C2015       C  0.46521240  0.34749840  0.74186553     0.13300
C2016       C  0.44320940  0.33577615  0.73841789    -0.22800
C2017       C  0.45361630  0.27627460  0.77133618    -0.05900
H2018       H  0.49323407  0.30396961  0.77504392     0.14800
C2019       C  0.46926125  0.37152659  0.72998977    -0.16100
H2020       H  0.42903679  0.34447093  0.72823664     0.09100
H2021       H  0.38278446  0.23708311  0.71433003     0.07000
H2022       H  0.40088112  0.25471418  0.69451429     0.08200
H2023       H  0.36914282  0.26037543  0.69587201     0.07200
H2024       H  0.40442424  0.34612799  0.77097348     0.02100
H2025       H  0.41447113  0.32381654  0.79245454     0.02600
H2026       H  0.38321497  0.33206998  0.79087876     0.06100
H2027       H  0.46984000  0.26966577  0.78093596     0.05100
H2028       H  0.44960612  0.26346726  0.75661168    -0.00700
H2029       H  0.43836237  0.27647231  0.78423681     0.00800
H2030       H  0.48552989  0.37067955  0.71841318     0.04500
H2031       H  0.47153085  0.38571921  0.74375952     0.06400
H2032       H  0.45380670  0.37679519  0.71849303     0.07300
C2033       C  0.40451377  0.16817964  0.80469455    -0.22400
C2034       C  0.41220066  0.18394335  0.82269335     0.09600
C2035       C  0.39726021  0.20307264  0.83008088     0.10000
C2036       C  0.37457129  0.20573374  0.81956472    -0.17300
C2037       C  0.36694006  0.19021217  0.80130475    -0.27700
C2038       C  0.38207703  0.17126012  0.79362554     0.18300
C2039       C  0.43601875  0.18020367  0.83365923     0.12300
C2040       C  0.40552460  0.22101971  0.84856135    -0.12000
H2041       H  0.36309560  0.22056902  0.82494118     0.12600
C2042       C  0.37450543  0.15409618  0.77411359    -0.22900
H2043       H  0.41622879  0.15359882  0.79917873     0.08200
C2044       C  0.43848845  0.16758158  0.85542087     0.04600
C2045       C  0.46110062  0.16637656  0.86637197    -0.20100
C2046       C  0.48152671  0.17699692  0.85577819    -0.12400
C2047       C  0.47908932  0.18858363  0.83309778     0.13300
C2048       C  0.45624077  0.19017105  0.82249912    -0.22800
C2049       C  0.41725430  0.15527148  0.86695994    -0.05900
H2050       H  0.46276960  0.15702106  0.88338163     0.14800
C2051       C  0.50001448  0.19996661  0.82009971    -0.16100
H2052       H  0.45399207  0.19957988  0.80556974     0.09100
H2053       H  0.38794027  0.13954333  0.77144555     0.07000
H2054       H  0.37259900  0.16378251  0.75678045     0.08200
H2055       H  0.35707830  0.14565744  0.77897721     0.07200
H2056       H  0.42208007  0.23013299  0.84209693     0.02100
H2057       H  0.40943523  0.21179595  0.86580275     0.02600
H2058       H  0.39166817  0.23500330  0.85202547     0.06100
H2059       H  0.42231305  0.14612749  0.88397198     0.05100
H2060       H  0.40996021  0.14153898  0.85449633    -0.00700
H2061       H  0.40294164  0.16855536  0.87109061     0.00800
H2062       H  0.51342739  0.18600120  0.81521500     0.04500
H2063       H  0.50845580  0.21385834  0.83161813     0.06400
H2064       H  0.49432836  0.20886641  0.80314791     0.07300
C2065       C  0.27900457  0.36000271  0.67906054    -0.22400
C2066       C  0.25786574  0.36163465  0.66548198     0.09600
C2067       C  0.24264914  0.34161503  0.66321276     0.10000
C2068       C  0.24854886  0.32040937  0.67530143    -0.17300
C2069       C  0.26934672  0.31877618  0.68959853    -0.27700
C2070       C  0.28503598  0.33869698  0.69116673     0.18300
C2071       C  0.25195154  0.38450582  0.65362966     0.12300
C2072       C  0.22003084  0.34279342  0.64834494    -0.12000
H2073       H  0.23645830  0.30518342  0.67405249     0.12600
C2074       C  0.30838906  0.33742370  0.70482233    -0.22900
H2075       H  0.29071423  0.37552088  0.68024477     0.08200
C2076       C  0.23979436  0.40294147  0.66598657     0.04600
C2077       C  0.23480424  0.42448076  0.65395617    -0.20100
C2078       C  0.24163719  0.42787801  0.62985264    -0.12400
C2079       C  0.25344842  0.40903632  0.61740798     0.13300
C2080       C  0.25842691  0.38754467  0.62954837    -0.22800
C2081       C  0.23221946  0.39985093  0.69182271    -0.05900
H2082       H  0.22572524  0.43884985  0.66349574     0.14800
C2083       C  0.26204564  0.41170828  0.59186466    -0.16100
H2084       H  0.26770902  0.37307438  0.62035098     0.09100
H2085       H  0.31911144  0.35411531  0.70260196     0.07000
H2086       H  0.31936871  0.32214787  0.69809927     0.08200
H2087       H  0.30485905  0.33509376  0.72430383     0.07200
H2088       H  0.22464279  0.34704448  0.62939394     0.02100
H2089       H  0.20792292  0.35697794  0.65548647     0.02600
H2090       H  0.21010514  0.32547749  0.64859297     0.06100
H2091       H  0.22280550  0.41603622  0.69877643     0.05100
H2092       H  0.24828576  0.39660773  0.70319124    -0.00700
H2093       H  0.21982119  0.38430049  0.69346991     0.00800
H2094       H  0.27463726  0.42709376  0.59062957     0.04500
H2095       H  0.24653605  0.41449466  0.57965546     0.06400
H2096       H  0.27179867  0.39546099  0.58555279     0.07300
C2097       C  0.19045728  0.40403679  0.80339636    -0.22400
C2098       C  0.18303697  0.38675376  0.78672998     0.09600
C2099       C  0.16348825  0.39173463  0.77139023     0.10000
C2100       C  0.15183654  0.41409827  0.77296277    -0.17300
C2101       C  0.15929183  0.43157705  0.78956208    -0.27700
C2102       C  0.17875653  0.42636772  0.80512694     0.18300
C2103       C  0.19639185  0.36374512  0.78520691     0.12300
C2104       C  0.15499559  0.37341627  0.75339980    -0.12000
H2105       H  0.13686984  0.41799740  0.76111838     0.12600
C2106       C  0.18660692  0.44375265  0.82430719    -0.22900
H2107       H  0.20543679  0.39994193  0.81516152     0.08200
C2108       C  0.21739485  0.36180393  0.77117118     0.04600
C2109       C  0.22912776  0.33960891  0.76952324    -0.20100
C2110       C  0.22015734  0.31900501  0.78114340    -0.12400
C2111       C  0.19922601  0.32107290  0.79565241     0.13300
C2112       C  0.18770321  0.34354112  0.79756898    -0.22800
C2113       C  0.22707206  0.38300640  0.75734233    -0.05900
H2114       H  0.24497928  0.33819750  0.75823645     0.14800
C2115       C  0.18911846  0.30001271  0.80946123    -0.16100
H2116       H  0.17160380  0.34533113  0.80844127     0.09100
H2117       H  0.19391000  0.46033668  0.81597191     0.07000
H2118       H  0.20093680  0.43600716  0.83585704     0.08200
H2119       H  0.17107971  0.44835435  0.83601818     0.07200
H2120       H  0.14914808  0.35685300  0.76290118     0.02100
H2121       H  0.16984296  0.36886670  0.74082907     0.02600
H2122       H  0.13957968  0.38020924  0.74268140     0.06100
H2123       H  0.24358769  0.37830081  0.74710359     0.05100
H2124       H  0.23159300  0.39778147  0.76991193    -0.00700
H2125       H  0.21334475  0.38942225  0.74436079     0.00800
H2126       H  0.17376778  0.30544969  0.82105922     0.04500
H2127       H  0.20322824  0.29217041  0.82121792     0.06400
H2128       H  0.18235898  0.28613513  0.79689237     0.07300
C2129       C  0.20037019  0.99936244  0.51248162    -0.22400
C2130       C  0.21317610  0.98739361  0.49447310     0.09600
C2131       C  0.22615874  0.00080221  0.47730603     0.10000
C2132       C  0.22626164  0.02600435  0.47876143    -0.17300
C2133       C  0.21409013  0.03820071  0.49729866    -0.27700
C2134       C  0.20087399  0.02450165  0.51437268     0.18300
C2135       C  0.21329133  0.96074886  0.49454912     0.12300
C2136       C  0.24041294  0.98849648  0.45784894    -0.12000
H2137       H  0.23651948  0.03619090  0.46567851     0.12600
C2138       C  0.18712443  0.03591673  0.53462830    -0.22900
H2139       H  0.19034231  0.98883195  0.52549101     0.08200
C2140       C  0.22683797  0.94767765  0.51153480     0.04600
C2141       C  0.22599711  0.92249125  0.51135131    -0.20100
C2142       C  0.21200811  0.90992822  0.49451431    -0.12400
C2143       C  0.19841681  0.92317118  0.47743024     0.13300
C2144       C  0.19920280  0.94842389  0.47778459    -0.22800
C2145       C  0.24242707  0.96030014  0.52968303    -0.05900
H2146       H  0.23659690  0.91254479  0.52433380     0.14800
C2147       C  0.18243415  0.91106249  0.45927645    -0.16100
H2148       H  0.18867863  0.95868874  0.46498332     0.09100
H2149       H  0.19998749  0.04405830  0.54744035     0.07000
H2150       H  0.17633875  0.02256969  0.54487113     0.08200
H2151       H  0.17452157  0.04960474  0.52738002     0.07200
H2152       H  0.22821603  0.97777601  0.44631973     0.02100
H2153       H  0.25402589  0.97640980  0.46606716     0.02600
H2154       H  0.24997013  0.00162639  0.44620708     0.06100
H2155       H  0.25235960  0.94735207  0.54120503     0.05100
H2156       H  0.23115371  0.97169046  0.54157071    -0.00700
H2157       H  0.25579598  0.97176460  0.52025843     0.00800
H2158       H  0.17193540  0.92431244  0.44862827     0.04500
H2159       H  0.16946336  0.89908331  0.46861090     0.06400
H2160       H  0.19346445  0.90054474  0.44640790     0.07300
C2161       C  0.20749001  0.12396999  0.58330641    -0.22400
C2162       C  0.22884773  0.13627885  0.58804076     0.09600
C2163       C  0.24701807  0.13757274  0.57039262     0.10000
C2164       C  0.24345723  0.12609755  0.54826293    -0.17300
C2165       C  0.22228244  0.11317674  0.54366789    -0.27700
C2166       C  0.20392671  0.11241396  0.56127790     0.18300
C2167       C  0.23180400  0.14742493  0.61182041     0.12300
C2168       C  0.27004783  0.15104125  0.57497577    -0.12000
H2169       H  0.25740606  0.12684224  0.53464291     0.12600
C2170       C  0.18032471  0.10006826  0.55680753    -0.22900
H2171       H  0.19361668  0.12333239  0.59701412     0.08200
C2172       C  0.22199635  0.17018272  0.61694763     0.04600
C2173       C  0.22522128  0.17998123  0.63983282    -0.20100
C2174       C  0.23840571  0.16772106  0.65756208    -0.12400
C2175       C  0.24815042  0.14472131  0.65234360     0.13300
C2176       C  0.24446081  0.13479777  0.62951745    -0.22800
C2177       C  0.20872281  0.18437283  0.59807626    -0.05900
H2178       H  0.21788632  0.19762238  0.64372579     0.14800
C2179       C  0.26346381  0.13103245  0.67007933    -0.16100
H2180       H  0.25188156  0.11728864  0.62521599     0.09100
H2181       H  0.17206042  0.10701725  0.54003479     0.07000
H2182       H  0.16739996  0.10298212  0.57177059     0.08200
H2183       H  0.18329174  0.08055724  0.55530907     0.07200
H2184       H  0.27958935  0.14299408  0.59054543     0.02100
H2185       H  0.26595819  0.17017175  0.57892857     0.02600
H2186       H  0.28229766  0.15041439  0.55920161     0.06100
H2187       H  0.20250145  0.20202737  0.60503507     0.05100
H2188       H  0.19272327  0.17417966  0.59196561    -0.00700
H2189       H  0.22077054  0.18773686  0.58249907     0.00800
H2190       H  0.25263909  0.12615351  0.68612833     0.04500
H2191       H  0.27908810  0.14216258  0.67553093     0.06400
H2192       H  0.27059013  0.11408031  0.66228698     0.07300
C2193       C  0.24005251  0.14964114  0.43086379    -0.22400
C2194       C  0.23220521  0.13862344  0.40967071     0.09600
C2195       C  0.22071063  0.11610595  0.41101447     0.10000
C2196       C  0.21765586  0.10490974  0.43347774    -0.17300
C2197       C  0.22564166  0.11567204  0.45494355    -0.27700
C2198       C  0.23682422  0.13867690  0.45348762     0.18300
C2199       C  0.23641291  0.15098397  0.38625372     0.12300
C2200       C  0.21158856  0.10391060  0.38869265    -0.12000
H2201       H  0.20881041  0.08758146  0.43418460     0.12600
C2202       C  0.24587656  0.15186051  0.47533850    -0.22900
H2203       H  0.24879891  0.16700666  0.42962538     0.08200
C2204       C  0.22028445  0.16844826  0.37731631     0.04600
C2205       C  0.22561718  0.18047319  0.35564192    -0.20100
C2206       C  0.24652687  0.17511442  0.34243022    -0.12400
C2207       C  0.26256748  0.15736554  0.35135540     0.13300
C2208       C  0.25725249  0.14556154  0.37310341    -0.22800
C2209       C  0.19743530  0.17428220  0.39067988    -0.05900
H2210       H  0.21337823  0.19408737  0.34892207     0.14800
C2211       C  0.28592619  0.15101122  0.33903918    -0.16100
H2212       H  0.26968667  0.13224077  0.38007156     0.09100
H2213       H  0.25491809  0.16898954  0.47047110     0.07000
H2214       H  0.25917032  0.14059668  0.48509165     0.08200
H2215       H  0.23059581  0.15648856  0.48733769     0.07200
H2216       H  0.22676360  0.10055144  0.37614817     0.02100
H2217       H  0.19807679  0.11553612  0.37970259     0.02600
H2218       H  0.20293514  0.08640172  0.39285047     0.06100
H2219       H  0.18670301  0.18824441  0.38125077     0.05100
H2220       H  0.20178658  0.18103027  0.40891740    -0.00700
H2221       H  0.18620281  0.15787595  0.39234605     0.00800
H2222       H  0.30113895  0.15419854  0.35153166     0.04500
H2223       H  0.28942820  0.16173490  0.32265095     0.06400
H2224       H  0.28577165  0.13171350  0.33397739     0.07300
C2225       C  0.50359229  0.26937223  0.52312059    -0.22400
C2226       C  0.51490285  0.28269534  0.50505370     0.09600
C2227       C  0.50112791  0.29566285  0.48825084     0.10000
C2228       C  0.47603924  0.29389234  0.48906167    -0.17300
C2229       C  0.46459229  0.27949682  0.50635759    -0.27700
C2230       C  0.47852732  0.26758159  0.52410911     0.18300
C2231       C  0.54101848  0.27986236  0.50218847     0.12300
C2232       C  0.51295732  0.31090146  0.46923989    -0.12000
H2233       H  0.46533097  0.30334645  0.47580163     0.12600
C2234       C  0.46748528  0.25181363  0.54327616    -0.22900
H2235       H  0.51454762  0.25946369  0.53585122     0.08200
C2236       C  0.55749870  0.29313721  0.51595048     0.04600
C2237       C  0.58208229  0.28795037  0.51390060    -0.20100
C2238       C  0.59036503  0.26983520  0.49836161    -0.12400
C2239       C  0.57368759  0.25673859  0.48436744     0.13300
C2240       C  0.54916697  0.26196290  0.48653291    -0.22800
C2241       C  0.54908030  0.31250971  0.53286408    -0.05900
H2242       H  0.59489889  0.29795664  0.52459062     0.14800
C2243       C  0.58134088  0.23653152  0.46800995    -0.16100
H2244       H  0.53613703  0.25169378  0.47634502     0.09100
H2245       H  0.45621991  0.26280911  0.55553803     0.07000
H2246       H  0.48138668  0.24285084  0.55447142     0.08200
H2247       H  0.45641484  0.23753540  0.53485460     0.07200
H2248       H  0.52455531  0.29953892  0.45763001     0.02100
H2249       H  0.52414861  0.32492804  0.47790724     0.02600
H2250       H  0.49949146  0.32000284  0.45763199     0.06100
H2251       H  0.56439441  0.32135483  0.54208039     0.05100
H2252       H  0.53710928  0.30463758  0.54678146    -0.00700
H2253       H  0.53902078  0.32645097  0.52270484     0.00800
H2254       H  0.59170313  0.22293288  0.47833512     0.04500
H2255       H  0.59253247  0.24365528  0.45309986     0.06400
H2256       H  0.56564552  0.22732733  0.45983226     0.07300
C2257       C  0.35670561  0.24458548  0.56917521    -0.22400
C2258       C  0.36755431  0.25283512  0.59020636     0.09600
C2259       C  0.38813906  0.26733549  0.58916253     0.10000
C2260       C  0.39793151  0.27284331  0.56674586    -0.17300
C2261       C  0.38764668  0.26409403  0.54532842    -0.27700
C2262       C  0.36631328  0.25012492  0.54660971     0.18300
C2263       C  0.35586470  0.24727143  0.61306237     0.12300
C2264       C  0.39961946  0.27706706  0.61165007    -0.12000
H2265       H  0.41391492  0.28394814  0.56607334     0.12600
C2266       C  0.35362289  0.24049665  0.52474661    -0.22900
H2267       H  0.34051548  0.23380465  0.57053828     0.08200
C2268       C  0.33599726  0.26083960  0.62073262     0.04600
C2269       C  0.32397384  0.25394950  0.64153612    -0.20100
C2270       C  0.33145919  0.23390453  0.65497107    -0.12400
C2271       C  0.35206035  0.22071952  0.64764618     0.13300
C2272       C  0.36393576  0.22757271  0.62649501    -0.22800
C2273       C  0.32753471  0.28264102  0.60698726    -0.05900
H2274       H  0.30869926  0.26454241  0.64746287     0.14800
C2275       C  0.36128809  0.19921457  0.66139442    -0.16100
H2276       H  0.37939728  0.21745720  0.62022051     0.09100
H2277       H  0.33736555  0.22994538  0.52960702     0.07000
H2278       H  0.36583584  0.22837436  0.51464563     0.08200
H2279       H  0.34759906  0.25559851  0.51315816     0.07200
H2280       H  0.40540067  0.26197503  0.62337618     0.02100
H2281       H  0.38650174  0.28841560  0.62154884     0.02600
H2282       H  0.41566331  0.28822984  0.60752860     0.06100
H2283       H  0.31182935  0.29134571  0.61576773     0.05100
H2284       H  0.32211836  0.27739486  0.58854969    -0.00700
H2285       H  0.34226619  0.29605391  0.60590745     0.00800
H2286       H  0.34676998  0.18567105  0.66341797     0.04500
H2287       H  0.36780674  0.20483757  0.67935369     0.06400
H2288       H  0.37662680  0.19045429  0.65203118     0.07300
C2289       C  0.36384184  0.22760242  0.37689342    -0.22400
C2290       C  0.35971381  0.24908797  0.38938394     0.09600
C2291       C  0.34321843  0.26611155  0.38042895     0.10000
C2292       C  0.33166166  0.26155149  0.35870027    -0.17300
C2293       C  0.33556611  0.24000998  0.34621593    -0.27700
C2294       C  0.35144471  0.22255424  0.35559638     0.18300
C2295       C  0.37181639  0.25301497  0.41251309     0.12300
C2296       C  0.33712267  0.28864167  0.39418433    -0.12000
H2297       H  0.31926266  0.27479477  0.35151525     0.12600
C2298       C  0.35418792  0.19817352  0.34413487    -0.22900
H2299       H  0.37627653  0.21449995  0.38423729     0.08200
C2300       C  0.36457560  0.24054456  0.43333111     0.04600
C2301       C  0.37544709  0.24610059  0.45525888    -0.20100
C2302       C  0.39346466  0.26373308  0.45680499    -0.12400
C2303       C  0.40065479  0.27623939  0.43577901     0.13300
C2304       C  0.38972552  0.27060163  0.41386180    -0.22800
C2305       C  0.34509541  0.22172400  0.43249104    -0.05900
H2306       H  0.36999461  0.23638555  0.47123233     0.14800
C2307       C  0.41912242  0.29606670  0.43625708    -0.16100
H2308       H  0.39491130  0.28016091  0.39766844     0.09100
H2309       H  0.33630582  0.18938241  0.34281969     0.07000
H2310       H  0.36610349  0.18623218  0.35483430     0.08200
H2311       H  0.36214842  0.19994275  0.32593507     0.07200
H2312       H  0.35332223  0.30008386  0.39610358     0.02100
H2313       H  0.33018558  0.28379656  0.41227845     0.02600
H2314       H  0.32311878  0.29941772  0.38491154     0.06100
H2315       H  0.34109868  0.21431764  0.45060444     0.05100
H2316       H  0.35081329  0.20657519  0.42085814    -0.00700
H2317       H  0.32829135  0.22970286  0.42522414     0.00800
H2318       H  0.43707812  0.28860749  0.44071672     0.04500
H2319       H  0.41388581  0.30985873  0.44969055     0.06400
H2320       H  0.42076864  0.30514707  0.41854104     0.07300
C2321       C  0.41625529  0.66703081  0.24764134    -0.22400
C2322       C  0.41472493  0.64603574  0.26146211     0.09600
C2323       C  0.39239170  0.63837775  0.27065783     0.10000
C2324       C  0.37195826  0.65237771  0.26626787    -0.17300
C2325       C  0.37348714  0.67362452  0.25276591    -0.27700
C2326       C  0.39580210  0.68090678  0.24292500     0.18300
C2327       C  0.43694810  0.63261212  0.26633193     0.12300
C2328       C  0.39015890  0.61550220  0.28501058    -0.12000
H2329       H  0.35475513  0.64695322  0.27372663     0.12600
C2330       C  0.39862227  0.70262048  0.22687189    -0.22900
H2331       H  0.43352246  0.67252172  0.24038707     0.08200
C2332       C  0.44585139  0.61551295  0.24991115     0.04600
C2333       C  0.46763728  0.60392475  0.25490292    -0.20100
C2334       C  0.48071455  0.60960668  0.27560635    -0.12400
C2335       C  0.47178180  0.62662625  0.29206539     0.13300
C2336       C  0.44978581  0.63791572  0.28729194    -0.22800
C2337       C  0.43252371  0.60982177  0.22707828    -0.05900
H2338       H  0.47474409  0.59073660  0.24243599     0.14800
C2339       C  0.48541616  0.63272793  0.31459127    -0.16100
H2340       H  0.44269975  0.65114571  0.29972092     0.09100
H2341       H  0.40621500  0.69694650  0.20929609     0.07000
H2342       H  0.41116032  0.71563189  0.23528974     0.08200
H2343       H  0.38140352  0.71193691  0.22318202     0.07200
H2344       H  0.40163889  0.61652562  0.30126973     0.02100
H2345       H  0.39597712  0.59999626  0.27389177     0.02600
H2346       H  0.37132732  0.61225767  0.29088569     0.06100
H2347       H  0.44197858  0.59591427  0.21630880     0.05100
H2348       H  0.43091647  0.62629615  0.21590479    -0.00700
H2349       H  0.41425280  0.60304750  0.23142000     0.00800
H2350       H  0.47569781  0.64622633  0.32564711     0.04500
H2351       H  0.50329318  0.64023323  0.30980816     0.06400
H2352       H  0.48793413  0.61626554  0.32561847     0.07300
C2353       C  0.45013837  0.79331187  0.15441948    -0.22400
C2354       C  0.44503583  0.77191458  0.16660880     0.09600
C2355       C  0.46239357  0.75345604  0.16776373     0.10000
C2356       C  0.48433788  0.75649854  0.15567117    -0.17300
C2357       C  0.48907112  0.77758413  0.14261713    -0.27700
C2358       C  0.47213975  0.79655397  0.14267326     0.18300
C2359       C  0.42111181  0.76916672  0.17759025     0.12300
C2360       C  0.45764318  0.73064789  0.18162650    -0.12000
H2361       H  0.49754843  0.74214498  0.15581838     0.12600
C2362       C  0.47688113  0.82061073  0.13112137    -0.22900
H2363       H  0.43683917  0.80759183  0.15410900     0.08200
C2364       C  0.41575811  0.77919572  0.20015132     0.04600
C2365       C  0.39266193  0.77630093  0.20967669    -0.20100
C2366       C  0.37463343  0.76414678  0.19692677    -0.12400
C2367       C  0.38015212  0.75400043  0.17421299     0.13300
C2368       C  0.40340635  0.75671588  0.16484764    -0.22800
C2369       C  0.43447136  0.79271915  0.21423125    -0.05900
H2370       H  0.38876124  0.78338757  0.22728933     0.14800
C2371       C  0.36215673  0.73936286  0.16021778    -0.16100
H2372       H  0.40790915  0.74901394  0.14752913     0.09100
H2373       H  0.47469741  0.83501208  0.14474954     0.07000
H2374       H  0.46378070  0.82368869  0.11640257     0.08200
H2375       H  0.49532061  0.82223562  0.12373435     0.07200
H2376       H  0.44173753  0.72129082  0.17408900     0.02100
H2377       H  0.45411988  0.73500123  0.20077808     0.02600
H2378       H  0.47321008  0.71813901  0.18082486     0.06100
H2379       H  0.42733594  0.79906155  0.23176986     0.05100
H2380       H  0.44050056  0.80867755  0.20385821    -0.00700
H2381       H  0.45015366  0.78086445  0.21776638     0.00800
H2382       H  0.34683201  0.75086189  0.15461603     0.04500
H2383       H  0.35553124  0.72420409  0.17141984     0.06400
H2384       H  0.37019678  0.73162926  0.14365798     0.07300
C2385       C  0.36626104  0.72656944  0.37255448    -0.22400
C2386       C  0.35472001  0.71245378  0.38987322     0.09600
C2387       C  0.33184883  0.70283747  0.38523889     0.10000
C2388       C  0.32126478  0.70687782  0.36284521    -0.17300
C2389       C  0.33289533  0.72054017  0.34487684    -0.27700
C2390       C  0.35574215  0.73081082  0.35005477     0.18300
C2391       C  0.36734580  0.70707721  0.41246393     0.12300
C2392       C  0.31879056  0.68798313  0.40381104    -0.12000
H2393       H  0.30381127  0.69898238  0.35939961     0.12600
C2394       C  0.36932154  0.74633136  0.33239891    -0.22900
H2395       H  0.38380675  0.73399846  0.37662629     0.08200
C2396       C  0.38544658  0.68938751  0.41342769     0.04600
C2397       C  0.39677782  0.68462576  0.43535966    -0.20100
C2398       C  0.39023078  0.69699770  0.45639371    -0.12400
C2399       C  0.37162019  0.71448973  0.45533590     0.13300
C2400       C  0.36058209  0.71938099  0.43326442    -0.22800
C2401       C  0.39260617  0.67543769  0.39134222    -0.05900
H2402       H  0.41087069  0.67116016  0.43606004     0.14800
C2403       C  0.36356654  0.72862724  0.47698412    -0.16100
H2404       H  0.34651191  0.73285224  0.43215111     0.09100
H2405       H  0.37440897  0.73562463  0.31636092     0.07000
H2406       H  0.38622817  0.75348511  0.34020933     0.08200
H2407       H  0.35810990  0.76197633  0.32704098     0.07200
H2408       H  0.31527845  0.69900383  0.42005215     0.02100
H2409       H  0.32989369  0.67216049  0.40884480     0.02600
H2410       H  0.30123011  0.68135962  0.39704523     0.06100
H2411       H  0.40675102  0.66190644  0.39534782     0.05100
H2412       H  0.39973835  0.68787302  0.37744397    -0.00700
H2413       H  0.37671029  0.66584978  0.38405368     0.00800
H2414       H  0.34983065  0.74236056  0.47229112     0.04500
H2415       H  0.37912715  0.73816037  0.48501151     0.06400
H2416       H  0.35524574  0.71635254  0.49034349     0.07300
C2417       C  0.19899845  0.81772897  0.41583307    -0.22400
C2418       C  0.22160665  0.80831295  0.40985083     0.09600
C2419       C  0.24077198  0.80972873  0.42641328     0.10000
C2420       C  0.23707614  0.82146369  0.44831117    -0.17300
C2421       C  0.21476794  0.83175085  0.45387508    -0.27700
C2422       C  0.19529620  0.82933274  0.43786538     0.18300
C2423       C  0.22550111  0.79882565  0.38546924     0.12300
C2424       C  0.26508765  0.79892381  0.42101994    -0.12000
H2425       H  0.25183104  0.82320955  0.46090289     0.12600
C2426       C  0.17065510  0.83863935  0.44416255    -0.22900
H2427       H  0.18440805  0.81645098  0.40300742     0.08200
C2428       C  0.21651566  0.77631342  0.37818765     0.04600
C2429       C  0.22268917  0.76750014  0.35542573    -0.20100
C2430       C  0.23770494  0.78068823  0.33998387    -0.12400
C2431       C  0.24587914  0.80372536  0.34709494     0.13300
C2432       C  0.23942784  0.81254727  0.36966968    -0.22800
C2433       C  0.20117554  0.76127230  0.39467185    -0.05900
H2434       H  0.21623841  0.74998819  0.34987797     0.14800
C2435       C  0.26278961  0.81841246  0.33188309    -0.16100
H2436       H  0.24599117  0.82994756  0.37546428     0.09100
H2437       H  0.15736831  0.83464366  0.42983519     0.07000
H2438       H  0.17126046  0.85839046  0.44666275     0.08200
H2439       H  0.16435441  0.83001602  0.46104386     0.07200
H2440       H  0.27327220  0.80779715  0.40513395     0.02100
H2441       H  0.26311138  0.77940673  0.41740187     0.02600
H2442       H  0.27770502  0.80110162  0.43631278     0.06100
H2443       H  0.19615169  0.74389622  0.38626704     0.05100
H2444       H  0.18434119  0.77104884  0.39910174    -0.00700
H2445       H  0.21117703  0.75735703  0.41147811     0.00800
H2446       H  0.25370468  0.82432283  0.31514519     0.04500
H2447       H  0.27873242  0.80725298  0.32748545     0.06400
H2448       H  0.26910290  0.83479826  0.34133943     0.07300
C2449       C  0.05389101  0.46076695  0.16938275    -0.22400
C2450       C  0.03909390  0.47571240  0.18320607     0.09600
C2451       C  0.04949460  0.49316339  0.19829707     0.10000
C2452       C  0.07462025  0.49536136  0.19914187    -0.17300
C2453       C  0.08961554  0.47992010  0.18590855    -0.27700
C2454       C  0.07905890  0.46250999  0.17061916     0.18300
C2455       C  0.01273828  0.47213616  0.18237742     0.12300
C2456       C  0.03409076  0.50892020  0.21407227    -0.12000
H2457       H  0.08261588  0.50861422  0.21092557     0.12600
C2458       C  0.09404500  0.44597295  0.15524528    -0.22900
H2459       H  0.04565511  0.44741687  0.15787057     0.08200
C2460       C  0.99794633  0.48582973  0.16702171     0.04600
C2461       C  0.97291562  0.48265450  0.16794165    -0.20100
C2462       C  0.96239176  0.46571654  0.18350428    -0.12400
C2463       C  0.97743682  0.45143809  0.19835444     0.13300
C2464       C  0.00242840  0.45496233  0.19763800    -0.22800
C2465       C  0.00861502  0.50369097  0.14965281    -0.05900
H2466       H  0.96148387  0.49343026  0.15639862     0.14800
C2467       C  0.96739468  0.43313293  0.21567722    -0.16100
H2468       H  0.01404714  0.44447645  0.20926466     0.09100
H2469       H  0.08273379  0.43505466  0.14298782     0.07000
H2470       H  0.10416085  0.43326044  0.16677236     0.08200
H2471       H  0.10671132  0.45663190  0.14406337     0.07200
H2472       H  0.02351596  0.49756085  0.22664903     0.02100
H2473       H  0.02155100  0.51969882  0.20292065     0.02600
H2474       H  0.04511303  0.52153443  0.22487604     0.06100
H2475       H  0.99451879  0.51281974  0.13884525     0.05100
H2476       H  0.02100698  0.49429327  0.13712453    -0.00700
H2477       H  0.01878984  0.51765535  0.15954204     0.00800
H2478       H  0.95859832  0.41836038  0.20563115     0.04500
H2479       H  0.95419108  0.44181229  0.22789904     0.06400
H2480       H  0.98170435  0.42492580  0.22693214     0.07300
C2481       C  0.18968387  0.61369138  0.21830089    -0.22400
C2482       C  0.20054572  0.59605194  0.20410208     0.09600
C2483       C  0.22294243  0.60065949  0.19310187     0.10000
C2484       C  0.23410391  0.62300291  0.19672734    -0.17300
C2485       C  0.22330695  0.64080793  0.21107626    -0.27700
C2486       C  0.20078721  0.63593995  0.22215294     0.18300
C2487       C  0.18818947  0.57266704  0.20173151     0.12300
C2488       C  0.23513917  0.58189355  0.17786939    -0.12000
H2489       H  0.25144155  0.62651139  0.18850286     0.12600
C2490       C  0.18882116  0.65341634  0.23910989    -0.22900
H2491       H  0.17258126  0.60975637  0.22683250     0.08200
C2492       C  0.19104367  0.55446208  0.21915331     0.04600
C2493       C  0.17837402  0.53285945  0.21665229    -0.20100
C2494       C  0.16232253  0.52936651  0.19754170    -0.12400
C2495       C  0.15896316  0.54792338  0.18044266     0.13300
C2496       C  0.17218114  0.56930200  0.18263962    -0.22800
C2497       C  0.20749178  0.55786176  0.24031449    -0.05900
H2498       H  0.18083444  0.51867517  0.22981054     0.14800
C2499       C  0.14198265  0.54510781  0.15957659    -0.16100
H2500       H  0.16987552  0.58358732  0.16956995     0.09100
H2501       H  0.17223914  0.64580149  0.24726854     0.07000
H2502       H  0.18351820  0.66998199  0.22933372     0.08200
H2503       H  0.20129748  0.65794838  0.25397184     0.07200
H2504       H  0.22341576  0.57711542  0.16248088     0.02100
H2505       H  0.23863858  0.56554214  0.18878403     0.02600
H2506       H  0.25259269  0.58839654  0.17061981     0.06100
H2507       H  0.20761680  0.54189306  0.25232313     0.05100
H2508       H  0.20156139  0.57361422  0.25103375    -0.00700
H2509       H  0.22608257  0.56088486  0.23374020     0.00800
H2510       H  0.14257399  0.56090077  0.14735316     0.04500
H2511       H  0.12324874  0.54334651  0.16625841     0.06400
H2512       H  0.14690914  0.52892231  0.14900373     0.07300
C2513       C  0.20021516  0.41684178  0.21585967    -0.22400
C2514       C  0.19175824  0.39645863  0.20383804     0.09600
C2515       C  0.17176572  0.39833947  0.18848416     0.10000
C2516       C  0.16034124  0.42061657  0.18578595    -0.17300
C2517       C  0.16817299  0.44108976  0.19831955    -0.27700
C2518       C  0.18873447  0.43921853  0.21334068     0.18300
C2519       C  0.20329251  0.37302790  0.20871191     0.12300
C2520       C  0.16219616  0.37673970  0.17531456    -0.12000
H2521       H  0.14499748  0.42193956  0.17392043     0.12600
C2522       C  0.19826760  0.46022683  0.22750712    -0.22900
H2523       H  0.21562466  0.41505609  0.22764559     0.08200
C2524       C  0.22296631  0.36475293  0.19501100     0.04600
C2525       C  0.23363931  0.34265108  0.20089342    -0.20100
C2526       C  0.22482640  0.32860879  0.21995806    -0.12400
C2527       C  0.20501611  0.33693236  0.23361719     0.13300
C2528       C  0.19451659  0.35911962  0.22780287    -0.22800
C2529       C  0.23273151  0.37932144  0.17435721    -0.05900
H2530       H  0.24890374  0.33625517  0.19055856     0.14800
C2531       C  0.19550135  0.32301348  0.25488460    -0.16100
H2532       H  0.17947355  0.36579292  0.23828192     0.09100
H2533       H  0.21357959  0.45493692  0.23918180     0.07000
H2534       H  0.18389047  0.46760015  0.23925468     0.08200
H2535       H  0.20490468  0.47439716  0.21511400     0.07200
H2536       H  0.15655679  0.36277815  0.18843051     0.02100
H2537       H  0.17634116  0.36921653  0.16341025     0.02600
H2538       H  0.14639713  0.38138638  0.16402522     0.06100
H2539       H  0.24820973  0.37024430  0.16557984     0.05100
H2540       H  0.23887518  0.39710481  0.18093651    -0.00700
H2541       H  0.21852623  0.38203366  0.16063664     0.00800
H2542       H  0.21017115  0.31978952  0.26799889     0.04500
H2543       H  0.18808516  0.30552839  0.24888581     0.06400
H2544       H  0.18087615  0.33287586  0.26427990     0.07300
C2545       C  0.20680188  0.47316229  0.47096277    -0.22400
C2546       C  0.21829835  0.49073051  0.48469601     0.09600
C2547       C  0.23047621  0.50973739  0.47319476     0.10000
C2548       C  0.23335961  0.50917612  0.44819891    -0.17300
C2549       C  0.22412486  0.49009773  0.43453558    -0.18900
C2550       C  0.20889143  0.47308016  0.44587544     0.18300
C2551       C  0.22031991  0.48711921  0.51085298     0.12300
C2552       C  0.24119009  0.53007057  0.48742641    -0.12000
H2553       H  0.24430235  0.52282193  0.43959569     0.12600
C2554       C  0.19409161  0.45512489  0.43222972    -0.22900
H2555       H  0.19666436  0.45909441  0.47990353     0.08200
C2556       C  0.20218887  0.49430951  0.52704480     0.04600
C2557       C  0.20572566  0.49073470  0.55178849    -0.20100
C2558       C  0.22708190  0.48037652  0.56038338    -0.12400
C2559       C  0.24542012  0.47372899  0.54408126     0.13300
C2560       C  0.24153997  0.47668533  0.51947519    -0.22800
C2561       C  0.17944590  0.50600426  0.51818315    -0.05900
H2562       H  0.19190118  0.49610883  0.56445353     0.14800
C2563       C  0.26968525  0.46452278  0.55196464    -0.16100
H2564       H  0.25552883  0.47151345  0.50687946     0.09100
H2565       H  0.17483511  0.45747258  0.43702978     0.07000
H2566       H  0.19960525  0.43662867  0.43729836     0.08200
H2567       H  0.19547881  0.45759246  0.41254057     0.07200
H2568       H  0.25507163  0.52308128  0.49992981     0.02100
H2569       H  0.22682675  0.53914994  0.49792716     0.02600
H2570       H  0.24976530  0.54368249  0.47557735     0.06100
H2571       H  0.16714153  0.51061448  0.53323257     0.05100
H2572       H  0.16985837  0.49360788  0.50588457    -0.00700
H2573       H  0.18390080  0.52281454  0.50836770     0.00800
H2574       H  0.27207313  0.44570595  0.54578934     0.04500
H2575       H  0.27223361  0.46517421  0.57166919     0.06400
H2576       H  0.28403579  0.47581930  0.54386875     0.07300
C2577       C  0.29119366  0.60492856  0.32983849    -0.22400
C2578       C  0.27847609  0.58643922  0.31844964     0.09600
C2579       C  0.26954132  0.59002633  0.29502464     0.10000
C2580       C  0.27177812  0.61272249  0.28428596    -0.17300
C2581       C  0.28300046  0.63178233  0.29636893    -0.27700
C2582       C  0.29400931  0.62748477  0.31886150     0.18300
C2583       C  0.27211185  0.56471407  0.33244319     0.12300
C2584       C  0.25749431  0.56999635  0.28147384    -0.12000
H2585       H  0.26399516  0.61584242  0.26669428     0.12600
C2586       C  0.30928241  0.64593669  0.33145391    -0.22900
H2587       H  0.29853477  0.60189508  0.34762342     0.08200
C2588       C  0.28862295  0.54597232  0.33684366     0.04600
C2589       C  0.28126679  0.52604954  0.35057573    -0.20100
C2590       C  0.25803068  0.52488069  0.36057489    -0.12400
C2591       C  0.24164194  0.54389974  0.35627727     0.13300
C2592       C  0.24886948  0.56342556  0.34207549    -0.22800
C2593       C  0.31387515  0.54703023  0.32707676    -0.05900
H2594       H  0.29385918  0.51153697  0.35392769     0.14800
C2595       C  0.21633985  0.54358931  0.36606593    -0.16100
H2596       H  0.23638063  0.57801324  0.33862332     0.09100
H2597       H  0.32750235  0.63835641  0.33460066     0.07000
H2598       H  0.30106251  0.65055586  0.34904263     0.08200
H2599       H  0.31165349  0.66267919  0.32091328     0.07200
H2600       H  0.24097391  0.56413147  0.29103030     0.02100
H2601       H  0.27003083  0.55453192  0.27981136     0.02600
H2602       H  0.25239131  0.57581342  0.26310970     0.06100
H2603       H  0.32442150  0.53080591  0.33206797     0.05100
H2604       H  0.32328424  0.56299845  0.33439947    -0.00700
H2605       H  0.31338385  0.54830788  0.30717578     0.00800
H2606       H  0.21666904  0.54455209  0.38596738     0.04500
H2607       H  0.20703486  0.52692883  0.36029848     0.06400
H2608       H  0.20566590  0.55917490  0.35954526     0.07300
C2609       C  0.25012979  0.39545342  0.36396880    -0.22400
C2610       C  0.27190868  0.39315193  0.35168112     0.09600
C2611       C  0.28790480  0.41272051  0.35039317     0.10000
C2612       C  0.28124384  0.43465365  0.36087981    -0.17300
C2613       C  0.25894415  0.43735046  0.37256017    -0.27700
C2614       C  0.24339493  0.41725937  0.37445500     0.18300
C2615       C  0.27581983  0.37104026  0.33775934     0.12300
C2616       C  0.31177340  0.41046479  0.33773808    -0.12000
H2617       H  0.29332732  0.44988197  0.35960121     0.12600
C2618       C  0.21923632  0.41870247  0.38647969    -0.22900
H2619       H  0.23793644  0.38025667  0.36455865     0.08200
C2620       C  0.28176256  0.34906301  0.34885575     0.04600
C2621       C  0.28283958  0.32818593  0.33486390    -0.20100
C2622       C  0.27793570  0.32888252  0.31010514    -0.12400
C2623       C  0.27169309  0.35105912  0.29911444     0.13300
C2624       C  0.27082833  0.37183683  0.31316804    -0.22800
C2625       C  0.28689234  0.34769774  0.37537917    -0.05900
H2626       H  0.28753483  0.31124348  0.34330250     0.14800
C2627       C  0.26476922  0.35299717  0.27296395    -0.16100
H2628       H  0.26563158  0.38881539  0.30508280     0.09100
H2629       H  0.20888997  0.40173296  0.38467359     0.07000
H2630       H  0.20841145  0.43335994  0.37831447     0.08200
H2631       H  0.22195085  0.42184680  0.40589157     0.07200
H2632       H  0.30892862  0.40624810  0.31847158     0.02100
H2633       H  0.32246517  0.39583368  0.34614391     0.02600
H2634       H  0.32234271  0.42735489  0.33882501     0.06100
H2635       H  0.29145572  0.32912872  0.38109533     0.05100
H2636       H  0.27083893  0.35348952  0.38574424    -0.00700
H2637       H  0.30227507  0.35958666  0.37981648     0.00800
H2638       H  0.24986881  0.34037700  0.26902342     0.04500
H2639       H  0.28045961  0.34891945  0.26132275     0.06400
H2640       H  0.25853174  0.37137608  0.26820532     0.07300
C2641       C  0.16050389  0.29293063  0.33059812    -0.22400
C2642       C  0.14093815  0.27727684  0.32795541     0.09600
C2643       C  0.14331542  0.25648009  0.31371026     0.10000
C2644       C  0.16519402  0.25193005  0.30213168    -0.17300
C2645       C  0.18482118  0.26750482  0.30470932    -0.27700
C2646       C  0.18251181  0.28836661  0.31905626     0.18300
C2647       C  0.11787786  0.28308799  0.33984182     0.12300
C2648       C  0.12288951  0.23891773  0.31100247    -0.12000
H2649       H  0.16713122  0.23590652  0.29121659     0.12600
C2650       C  0.20239106  0.30655816  0.32191039    -0.22900
H2651       H  0.15846507  0.30895730  0.34147769     0.08200
C2652       C  0.11388225  0.27769962  0.36423505     0.04600
C2653       C  0.09114715  0.28203072  0.37423638    -0.20100
C2654       C  0.07226866  0.29180254  0.36047396    -0.12400
C2655       C  0.07665900  0.29788812  0.33608454     0.13300
C2656       C  0.09943231  0.29333479  0.32611579    -0.22800
C2657       C  0.13352705  0.26714111  0.37961258    -0.05900
H2658       H  0.08805202  0.27738883  0.39290534     0.14800
C2659       C  0.05789144  0.30976927  0.32055299    -0.16100
H2660       H  0.10288686  0.29758626  0.30740612     0.09100
H2661       H  0.20760834  0.30772041  0.34111891     0.07000
H2662       H  0.19590919  0.32447163  0.31589081     0.08200
H2663       H  0.21865354  0.30222709  0.31123796     0.07200
H2664       H  0.10722350  0.24796401  0.30257615     0.02100
H2665       H  0.11757799  0.23190586  0.32893088     0.02600
H2666       H  0.12799377  0.22338861  0.29954366     0.06100
H2667       H  0.12727183  0.26369885  0.39826875     0.05100
H2668       H  0.14891783  0.27980199  0.38046025    -0.00700
H2669       H  0.13971820  0.24983523  0.37183945     0.00800
H2670       H  0.06521951  0.31480266  0.30265655     0.04500
H2671       H  0.05133823  0.32644546  0.32934509     0.06400
H2672       H  0.04265611  0.29731258  0.31744604     0.07300
C2673       C  0.94016034  0.29591263  0.35282966    -0.22400
C2674       C  0.94020758  0.27825013  0.33498238     0.09600
C2675       C  0.96207586  0.26761776  0.32778142     0.10000
C2676       C  0.98341658  0.27412238  0.33947386    -0.17300
C2677       C  0.98333483  0.29079620  0.35844284    -0.27700
C2678       C  0.96141251  0.30230453  0.36478243     0.18300
C2679       C  0.91698427  0.27013817  0.32498791     0.12300
C2680       C  0.96273834  0.24892663  0.30822763    -0.12000
H2681       H  0.00010268  0.26541595  0.33435482     0.12600
C2682       C  0.96011376  0.32146876  0.38387173    -0.22900
H2683       H  0.92323775  0.30419999  0.35789605     0.08200
C2684       C  0.90276740  0.25297617  0.33713482     0.04600
C2685       C  0.88149108  0.24474214  0.32642852    -0.20100
C2686       C  0.87432634  0.25309013  0.30373351    -0.12400
C2687       C  0.88825556  0.27098946  0.29197547     0.13300
C2688       C  0.90942523  0.27927027  0.30282814    -0.22800
C2689       C  0.91036180  0.24303208  0.36115337    -0.05900
H2690       H  0.87077501  0.23125115  0.33549908     0.14800
C2691       C  0.88070250  0.28193306  0.26830462    -0.16100
H2692       H  0.92036529  0.29269159  0.29385674     0.09100
H2693       H  0.96363473  0.31354141  0.40182269     0.07000
H2694       H  0.94203656  0.32996500  0.38465105     0.08200
H2695       H  0.97343170  0.33581781  0.37996812     0.07200
H2696       H  0.95596640  0.25679547  0.29118690     0.02100
H2697       H  0.95126423  0.23341091  0.31334625     0.02600
H2698       H  0.98127384  0.24217785  0.30500090     0.06100
H2699       H  0.89735914  0.22953443  0.36806367     0.05100
H2700       H  0.91155573  0.25781219  0.37446920    -0.00700
H2701       H  0.92821433  0.23421411  0.35947307     0.00800
H2702       H  0.89257672  0.29708456  0.26298150     0.04500
H2703       H  0.86205962  0.28900200  0.26971939     0.06400
H2704       H  0.88171637  0.26835716  0.25376973     0.07300
C2705       C  0.09731898  0.13977402  0.23037558    -0.22400
C2706       C  0.11865519  0.13637386  0.21752656     0.09600
C2707       C  0.11917374  0.12056873  0.19778905     0.10000
C2708       C  0.09794065  0.10885026  0.19092400    -0.17300
C2709       C  0.07622854  0.11247970  0.20346658    -0.27700
C2710       C  0.07606845  0.12799626  0.22374103     0.18300
C2711       C  0.14006594  0.15031532  0.22455021     0.12300
C2712       C  0.14220274  0.11594355  0.18419624    -0.12000
H2713       H  0.09831851  0.09680057  0.17564735     0.12600
C2714       C  0.05400246  0.13177316  0.23910666    -0.22900
H2715       H  0.09732852  0.15186747  0.24563288     0.08200
C2716       C  0.14523548  0.17248329  0.21353898     0.04600
C2717       C  0.16598448  0.18492041  0.22026655    -0.20100
C2718       C  0.18205635  0.17563292  0.23747098    -0.12400
C2719       C  0.17615409  0.15376467  0.24928163     0.13300
C2720       C  0.15514512  0.14143039  0.24263296    -0.22800
C2721       C  0.12876628  0.18308375  0.19478345    -0.05900
H2722       H  0.16967775  0.20200747  0.21184487     0.14800
C2723       C  0.19130159  0.14356952  0.26930869    -0.16100
H2724       H  0.15053646  0.12462533  0.25137868     0.09100
H2725       H  0.03989166  0.14126094  0.22867244     0.07000
H2726       H  0.05792401  0.14296474  0.25513168     0.08200
H2727       H  0.04712801  0.11418641  0.24560988     0.07200
H2728       H  0.15591751  0.10839585  0.19658203     0.02100
H2729       H  0.14914991  0.13294248  0.17639520     0.02600
H2730       H  0.13952503  0.10297689  0.16929547     0.06100
H2731       H  0.13556459  0.20056470  0.18791499     0.05100
H2732       H  0.11065268  0.18609976  0.20265758    -0.00700
H2733       H  0.12716042  0.17066781  0.17929724     0.00800
H2734       H  0.18271330  0.12762320  0.27773297     0.04500
H2735       H  0.19380180  0.15731069  0.28354013     0.06400
H2736       H  0.20903277  0.13770721  0.26224918     0.07300
C2737       C  0.92337413  0.15089397  0.24035649    -0.22400
C2738       C  0.92120062  0.13092535  0.22520237     0.09600
C2739       C  0.89828700  0.12185957  0.21944975     0.10000
C2740       C  0.87788706  0.13377543  0.22816325    -0.17300
C2741       C  0.88000183  0.15456145  0.24228047    -0.27700
C2742       C  0.90300674  0.16277479  0.24919208     0.18300
C2743       C  0.94338149  0.12012336  0.21554634     0.12300
C2744       C  0.89535758  0.10018981  0.20354043    -0.12000
H2745       H  0.86017667  0.12749769  0.22299053     0.12600
C2746       C  0.90672713  0.18352242  0.26617703    -0.22900
H2747       H  0.94112710  0.15733755  0.24516834     0.08200
C2748       C  0.95574963  0.13077690  0.19611798     0.04600
C2749       C  0.97844628  0.12189868  0.18961432    -0.20100
C2750       C  0.98861080  0.10236010  0.20184193    -0.12400
C2751       C  0.97576524  0.09113600  0.22077142     0.13300
C2752       C  0.95320971  0.10020119  0.22734131    -0.22800
C2753       C  0.94488508  0.15138271  0.18226260    -0.05900
H2754       H  0.98828374  0.13016746  0.17493969     0.14800
C2755       C  0.98557342  0.07025399  0.23507988    -0.16100
H2756       H  0.94354919  0.09217170  0.24227604     0.09100
H2757       H  0.91643648  0.19822637  0.25678057     0.07000
H2758       H  0.91770768  0.17742745  0.28169516     0.08200
H2759       H  0.88965489  0.19076652  0.27351210     0.07200
H2760       H  0.90428212  0.08439765  0.21188418     0.02100
H2761       H  0.90361499  0.10376343  0.18571602     0.02600
H2762       H  0.87610270  0.09566786  0.20072140     0.06100
H2763       H  0.95678346  0.15734720  0.16735604     0.05100
H2764       H  0.94181910  0.16692856  0.19435822    -0.00700
H2765       H  0.92743324  0.14571801  0.17442971     0.00800
H2766       H  0.98592562  0.07504917  0.25443525     0.04500
H2767       H  0.00410920  0.06507991  0.22993299     0.06400
H2768       H  0.97373053  0.05438827  0.23265628     0.07300
C2769       C  0.91757311  0.69100489  0.30676682    -0.22400
C2770       C  0.92008628  0.66909129  0.31887602     0.09600
C2771       C  0.90137437  0.65199163  0.31818589     0.10000
C2772       C  0.88021082  0.65746516  0.30555560    -0.17300
C2773       C  0.87777287  0.67940951  0.29336139    -0.27700
C2774       C  0.89672199  0.69631603  0.29378823     0.18300
C2775       C  0.94224988  0.66533363  0.33293420     0.12300
C2776       C  0.90370009  0.62818632  0.33086322    -0.12000
H2777       H  0.86554227  0.64464645  0.30516601     0.12600
C2778       C  0.89487706  0.72014725  0.28095853    -0.22900
H2779       H  0.93204129  0.70403233  0.30757470     0.08200
C2780       C  0.96351131  0.65677073  0.32211561     0.04600
C2781       C  0.98495292  0.65664323  0.33537301    -0.20100
C2782       C  0.98564080  0.66508348  0.35915829    -0.12400
C2783       C  0.96414358  0.67389019  0.36987060     0.13300
C2784       C  0.94271453  0.67363213  0.35661984    -0.22800
C2785       C  0.96358498  0.64815431  0.29647456    -0.05900
H2786       H  0.00129452  0.64998398  0.32706343     0.14800
C2787       C  0.96369346  0.68499138  0.39458795    -0.16100
H2788       H  0.92631579  0.68075593  0.36444806     0.09100
H2789       H  0.89378000  0.71705937  0.26133269     0.07000
H2790       H  0.91075373  0.73173208  0.28442022     0.08200
H2791       H  0.87857772  0.72998799  0.28689397     0.07200
H2792       H  0.90630403  0.63115381  0.35040096     0.02100
H2793       H  0.91937724  0.61817041  0.32360179     0.02600
H2794       H  0.88741231  0.61690732  0.32841413     0.06100
H2795       H  0.98175890  0.64215371  0.29071141     0.05100
H2796       H  0.95779539  0.66291651  0.28433832    -0.00700
H2797       H  0.95103997  0.63278026  0.29454166     0.00800
H2798       H  0.94579713  0.69277144  0.39894343     0.04500
H2799       H  0.97711366  0.69972102  0.39559032     0.06400
H2800       H  0.96759527  0.67122589  0.40845966     0.07300
C2801       C  0.11300404  0.69313483  0.35497341    -0.22400
C2802       C  0.11739601  0.68075924  0.33353103     0.09600
C2803       C  0.10004120  0.66464425  0.32459752     0.10000
C2804       C  0.07841653  0.66141549  0.33728396    -0.17300
C2805       C  0.07407294  0.67352569  0.35898760    -0.27700
C2806       C  0.09158972  0.68968715  0.36790419     0.18300
C2807       C  0.13990224  0.68585944  0.32023762     0.12300
C2808       C  0.10445196  0.65084281  0.30175755    -0.12000
H2809       H  0.06502552  0.64904083  0.33047345     0.12600
C2810       C  0.08756447  0.70397066  0.39055411    -0.22900
H2811       H  0.12639235  0.70566586  0.36151113     0.08200
C2812       C  0.14120913  0.70509421  0.30377802     0.04600
C2813       C  0.16307847  0.71004076  0.29225447    -0.20100
C2814       C  0.18376139  0.69629847  0.29690681    -0.12400
C2815       C  0.18231135  0.67664643  0.31310148     0.13300
C2816       C  0.16031973  0.67171669  0.32461227    -0.22800
C2817       C  0.11952266  0.72047515  0.29848507    -0.05900
H2818       H  0.16415911  0.72508732  0.27989048     0.14800
C2819       C  0.20355208  0.66041633  0.31780167    -0.16100
H2820       H  0.15902676  0.65686780  0.33718623     0.09100
H2821       H  0.10225752  0.71710306  0.39368057     0.07000
H2822       H  0.08704204  0.69175760  0.40629515     0.08200
H2823       H  0.07040418  0.71412800  0.38927998     0.07200
H2824       H  0.12065722  0.63934857  0.30385654     0.02100
H2825       H  0.10734969  0.66350389  0.28659627     0.02600
H2826       H  0.08900489  0.63907276  0.29719865     0.06100
H2827       H  0.12366461  0.73480977  0.28519161     0.05100
H2828       H  0.11313071  0.72921250  0.31524042    -0.00700
H2829       H  0.10488573  0.70917054  0.29106120     0.00800
H2830       H  0.21806607  0.67051025  0.32696380     0.04500
H2831       H  0.21042739  0.65304232  0.30057432     0.06400
H2832       H  0.19861982  0.64502247  0.32954885     0.07300
C2833       C  0.01276405  0.95294836  0.18260431    -0.22400
C2834       C  0.03047157  0.96153502  0.16690039     0.09600
C2835       C  0.04462911  0.94532002  0.15362244     0.10000
C2836       C  0.04173075  0.92059035  0.15747217    -0.17300
C2837       C  0.02481239  0.91186351  0.17412264    -0.27700
C2838       C  0.00961006  0.92826406  0.18636145     0.18300
C2839       C  0.03522396  0.98755935  0.16672324     0.12300
C2840       C  0.06298137  0.95418338  0.13577850    -0.12000
H2841       H  0.05318298  0.90801117  0.14794381     0.12600
C2842       C  0.99102823  0.92015555  0.20441263    -0.22900
H2843       H  0.00198504  0.96573138  0.19264626     0.08200
C2844       C  0.02044927  0.00361495  0.15392582     0.04600
C2845       C  0.02301025  0.02833953  0.15777698    -0.20100
C2846       C  0.03976691  0.03724346  0.17440548    -0.12400
C2847       C  0.05530075  0.02106068  0.18646772     0.13300
C2848       C  0.05292844  0.99635765  0.18224450    -0.22800
C2849       C  0.00151835  0.99457822  0.13687103    -0.05900
H2850       H  0.01108788  0.04075221  0.14860543     0.14800
C2851       C  0.07306152  0.02937348  0.20513187    -0.16100
H2852       H  0.06399669  0.98369782  0.19212726     0.09100
H2853       H  0.97710865  0.90914744  0.19536088     0.07000
H2854       H  0.98171400  0.93561177  0.21297761     0.08200
H2855       H  0.99974400  0.90948765  0.21886491     0.07200
H2856       H  0.07670591  0.96525206  0.14505823     0.02100
H2857       H  0.05395552  0.96528419  0.12185283     0.02600
H2858       H  0.07231814  0.93907548  0.12664690     0.06100
H2859       H  0.99157693  0.00959084  0.12821253     0.05100
H2860       H  0.98832184  0.98327719  0.14671600    -0.00700
H2861       H  0.01011872  0.98368065  0.12253577     0.00800
H2862       H  0.06350294  0.03918613  0.21966235     0.04500
H2863       H  0.08668998  0.04128698  0.19672042     0.06400
H2864       H  0.08279492  0.01405645  0.21349369     0.07300
C2865       C  0.95863662  0.81711535  0.22836933    -0.22400
C2866       C  0.94140323  0.81323608  0.21049225     0.09600
C2867       C  0.94521616  0.82222900  0.18707381     0.10000
C2868       C  0.96648598  0.83479252  0.18199209    -0.17300
C2869       C  0.98412795  0.83792883  0.19967114    -0.27700
C2870       C  0.98012731  0.82918351  0.22319895     0.18300
C2871       C  0.91971734  0.79924749  0.21671488     0.12300
C2872       C  0.92718196  0.81797339  0.16738309    -0.12000
H2873       H  0.96963812  0.84170492  0.16403638     0.12600
C2874       C  0.99817396  0.83299661  0.24300887    -0.22900
H2875       H  0.95534405  0.81034642  0.24635564     0.08200
C2876       C  0.92054828  0.77404768  0.21890899     0.04600
C2877       C  0.89958650  0.76152909  0.22517489    -0.20100
C2878       C  0.87776657  0.77363227  0.22966022    -0.12400
C2879       C  0.87711257  0.79910861  0.22715296     0.13300
C2880       C  0.89814143  0.81147746  0.22076533    -0.22800
C2881       C  0.94353582  0.76038463  0.21438329    -0.05900
H2882       H  0.90035276  0.74213190  0.22656516     0.14800
C2883       C  0.85436380  0.81356067  0.23015452    -0.16100
H2884       H  0.89781408  0.83087742  0.21885940     0.09100
H2885       H  0.01512971  0.82333543  0.23879474     0.07000
H2886       H  0.99147439  0.82611484  0.26052961     0.08200
H2887       H  0.00192440  0.85248913  0.24502993     0.07200
H2888       H  0.90967231  0.82628972  0.17220353     0.02100
H2889       H  0.92468707  0.79834804  0.16485213     0.02600
H2890       H  0.93319469  0.82580334  0.15001337     0.06100
H2891       H  0.94093208  0.74067650  0.21620235     0.05100
H2892       H  0.95744188  0.76594804  0.22752197    -0.00700
H2893       H  0.95010682  0.76414925  0.19590378     0.00800
H2894       H  0.85711789  0.83289373  0.22596327     0.04500
H2895       H  0.84788245  0.81246857  0.24899259     0.06400
H2896       H  0.84051511  0.80667344  0.21764646     0.07300
C2897       C  0.09945822  0.80826920  0.20532729    -0.22400
C2898       C  0.11682247  0.82383929  0.21464961     0.09600
C2899       C  0.11248940  0.84875121  0.21517040     0.10000
C2900       C  0.09032451  0.85755502  0.20708127    -0.17300
C2901       C  0.07231874  0.84196487  0.19862832    -0.27700
C2902       C  0.07718299  0.81695964  0.19728982     0.18300
C2903       C  0.13989604  0.81369198  0.22280933     0.12300
C2904       C  0.13112484  0.86593506  0.22463499    -0.12000
H2905       H  0.08683733  0.87670051  0.20802818     0.12600
C2906       C  0.05945191  0.79934612  0.18688030    -0.22900
H2907       H  0.10337913  0.78919123  0.20447454     0.08200
C2908       C  0.14267065  0.80366449  0.24595076     0.04600
C2909       C  0.16487350  0.79342013  0.25234296    -0.20100
C2910       C  0.18403901  0.79299779  0.23592760    -0.12400
C2911       C  0.18113929  0.80322699  0.21282233     0.13300
C2912       C  0.15910097  0.81351904  0.20661745    -0.22800
C2913       C  0.12207001  0.80339070  0.26355350    -0.05900
H2914       H  0.16703080  0.78500607  0.26979493     0.14800
C2915       C  0.20047673  0.80276140  0.19383300    -0.16100
H2916       H  0.15671071  0.82110640  0.18881047     0.09100
H2917       H  0.04338484  0.79790567  0.19862832     0.07000
H2918       H  0.06728641  0.78103201  0.18534331     0.08200
H2919       H  0.05403238  0.80523936  0.16860060     0.07200
H2920       H  0.14784453  0.86452529  0.21378535     0.02100
H2921       H  0.13525241  0.86150434  0.24364565     0.02600
H2922       H  0.12480996  0.88486774  0.22383757     0.06100
H2923       H  0.12728658  0.79497903  0.28089379     0.05100
H2924       H  0.10683473  0.79299641  0.25598400    -0.00700
H2925       H  0.11604787  0.82207518  0.26717459     0.00800
H2926       H  0.19451793  0.79129988  0.17868011     0.04500
H2927       H  0.21785361  0.79582616  0.20050210     0.06400
H2928       H  0.20355262  0.82123651  0.18695716     0.07300
C2929       C  0.04181814  0.63854332  0.52502322    -0.22400
C2930       C  0.02771958  0.65417199  0.51121157     0.09600
C2931       C  0.01123996  0.66978523  0.52252354     0.10000
C2932       C  0.00999778  0.67020826  0.54764841    -0.17300
C2933       C  0.02479984  0.65529078  0.56160164    -0.27700
C2934       C  0.04040783  0.63875308  0.55019340     0.18300
C2935       C  0.03035050  0.65400473  0.48484750     0.12300
C2936       C  0.99512976  0.68607894  0.50804990    -0.12000
H2937       H  0.99783759  0.68265385  0.55645848     0.12600
C2938       C  0.05485537  0.62073924  0.56439114    -0.22900
H2939       H  0.05398594  0.62623242  0.51604494     0.08200
C2940       C  0.04695956  0.66915977  0.47316186     0.04600
C2941       C  0.04710018  0.67020073  0.44801504    -0.20100
C2942       C  0.03111382  0.65629812  0.43433277    -0.12400
C2943       C  0.01547601  0.63999097  0.44617339     0.13300
C2944       C  0.01520302  0.63922600  0.47135811    -0.22800
C2945       C  0.06425290  0.68444236  0.48725751    -0.05900
H2946       H  0.05926917  0.68249203  0.43905744     0.14800
C2947       C  0.99960549  0.62280947  0.43255685    -0.16100
H2948       H  0.00285452  0.62732389  0.48064461     0.09100
H2949       H  0.06822111  0.63004423  0.57582051     0.07000
H2950       H  0.06484086  0.60821499  0.55246175     0.08200
H2951       H  0.04262073  0.60989361  0.57588003     0.07200
H2952       H  0.98349414  0.67513638  0.49613751     0.02100
H2953       H  0.00618922  0.69840994  0.49689572     0.02600
H2954       H  0.98330279  0.69714234  0.51974680     0.06100
H2955       H  0.07607637  0.69523281  0.47528965     0.05100
H2956       H  0.07586338  0.67274763  0.49853403    -0.00700
H2957       H  0.05414283  0.69699720  0.49902588     0.00800
H2958       H  0.99029170  0.61006096  0.44480894     0.04500
H2959       H  0.01066748  0.61210275  0.41983835     0.06400
H2960       H  0.98550631  0.63274290  0.42258813     0.07300
C2961       C  0.09257449  0.69279766  0.66434862    -0.22400
C2962       C  0.11162597  0.67691070  0.65989622     0.09600
C2963       C  0.10844368  0.65753994  0.64395348     0.10000
C2964       C  0.08616275  0.65449951  0.63264955    -0.17300
C2965       C  0.06689829  0.67017939  0.63722363    -0.27700
C2966       C  0.07017237  0.68971351  0.65317174     0.18300
C2967       C  0.13497128  0.68113508  0.67178729     0.12300
C2968       C  0.12859110  0.64013794  0.63887917    -0.12000
H2969       H  0.08369073  0.63966042  0.62030423     0.12600
C2970       C  0.05056057  0.70785903  0.65778218    -0.22900
H2971       H  0.09536069  0.70775600  0.67648558     0.08200
C2972       C  0.15251555  0.69610448  0.66129690     0.04600
C2973       C  0.17447076  0.69953143  0.67315021    -0.20100
C2974       C  0.17908544  0.68872387  0.69552285    -0.12400
C2975       C  0.16144768  0.67343949  0.70588792     0.13300
C2976       C  0.13962170  0.66981220  0.69377140    -0.22800
C2977       C  0.14787347  0.70871160  0.63777184    -0.05900
H2978       H  0.18779585  0.71138332  0.66526312     0.14800
C2979       C  0.16560953  0.66040290  0.72931775    -0.16100
H2980       H  0.12600561  0.65819031  0.70150887     0.09100
H2981       H  0.05689060  0.72281062  0.66935267     0.07000
H2982       H  0.03529486  0.69912232  0.66714865     0.08200
H2983       H  0.04432990  0.71570089  0.64051513     0.07200
H2984       H  0.13413330  0.63113192  0.65580549     0.02100
H2985       H  0.14423178  0.64988005  0.63119252     0.02600
H2986       H  0.12309493  0.62605035  0.62589082     0.06100
H2987       H  0.16352246  0.71971048  0.63201514     0.05100
H2988       H  0.13208926  0.72081952  0.63962129    -0.00700
H2989       H  0.14418657  0.69529260  0.62351758     0.00800
H2990       H  0.15066549  0.64785210  0.73357899     0.04500
H2991       H  0.16676995  0.67339961  0.74435581     0.06400
H2992       H  0.18247094  0.64972691  0.72824802     0.07300
C2993       C  0.90550018  0.66393945  0.69363934    -0.22400
C2994       C  0.91173497  0.67828178  0.67389246     0.09600
C2995       C  0.89667401  0.69745496  0.66693793     0.10000
C2996       C  0.87589570  0.70226574  0.68035385    -0.17300
C2997       C  0.86996583  0.68845280  0.70062740    -0.27700
C2998       C  0.88470275  0.66879047  0.70712022     0.18300
C2999       C  0.93478015  0.67373044  0.66149834     0.12300
C3000       C  0.90275809  0.71306419  0.64564370    -0.12000
H3001       H  0.86445555  0.71723231  0.67530619     0.12600
C3002       C  0.87829226  0.65259148  0.72776496    -0.22900
H3003       H  0.91714437  0.64911682  0.69865788     0.08200
C3004       C  0.95637086  0.68344851  0.67029832     0.04600
C3005       C  0.97782190  0.67918018  0.65783119    -0.20100
C3006       C  0.97823959  0.66602015  0.63624905    -0.12400
C3007       C  0.95629466  0.65625494  0.62745168     0.13300
C3008       C  0.93492110  0.66009583  0.64041662    -0.22800
C3009       C  0.95664495  0.69891089  0.69251347    -0.05900
H3010       H  0.99425874  0.68687947  0.66474685     0.14800
C3011       C  0.95491622  0.64166974  0.60467463    -0.16100
H3012       H  0.91808366  0.65280306  0.63388919     0.09100
H3013       H  0.87853192  0.66295012  0.74476858     0.07000
H3014       H  0.89128732  0.63753178  0.72955555     0.08200
H3015       H  0.86012812  0.64483978  0.72485448     0.07200
H3016       H  0.90353824  0.70192597  0.62913281     0.02100
H3017       H  0.92046951  0.72179493  0.64846962     0.02600
H3018       H  0.88912319  0.72740603  0.64284726     0.06100
H3019       H  0.97504039  0.70537171  0.69678396     0.05100
H3020       H  0.94991947  0.68847780  0.70815097    -0.00700
H3021       H  0.94495285  0.71487494  0.68976201     0.00800
H3022       H  0.96749576  0.62618783  0.60569392     0.04500
H3023       H  0.95932127  0.65311340  0.58892491     0.06400
H3024       H  0.93656930  0.63439887  0.60165609     0.07300
C3025       C  0.10411187  0.81103128  0.80621323    -0.22400
C3026       C  0.10961554  0.81441702  0.78182077     0.09600
C3027       C  0.09372202  0.82753025  0.76705497     0.10000
C3028       C  0.07281664  0.83741379  0.77714658    -0.17300
C3029       C  0.06754966  0.83444167  0.80161032    -0.27700
C3030       C  0.08315806  0.82085996  0.81632308     0.18300
C3031       C  0.13200128  0.80376790  0.77209635     0.12300
C3032       C  0.09899136  0.83128931  0.74077031    -0.12000
H3033       H  0.06061408  0.84773381  0.76596982     0.12600
C3034       C  0.07809844  0.81619240  0.84253134    -0.22900
H3035       H  0.11625196  0.80065184  0.81740621     0.08200
C3036       C  0.15438072  0.81540767  0.77452651     0.04600
C3037       C  0.17535207  0.80379285  0.76653640    -0.20100
C3038       C  0.17443485  0.78059577  0.75662577    -0.12400
C3039       C  0.15173789  0.76953045  0.75303264     0.13300
C3040       C  0.13080968  0.78134000  0.76081413    -0.22800
C3041       C  0.15612980  0.83983017  0.78602479    -0.05900
H3042       H  0.19265375  0.81234198  0.76921514     0.14800
C3043       C  0.14932569  0.74544259  0.74082364    -0.16100
H3044       H  0.11343286  0.77279418  0.75865246     0.09100
H3045       H  0.09301089  0.82347571  0.85356831     0.07000
H3046       H  0.07678898  0.79651623  0.84566452     0.08200
H3047       H  0.06108191  0.82453102  0.84877964     0.07200
H3048       H  0.10021098  0.81364972  0.73155553     0.02100
H3049       H  0.11631037  0.84098208  0.73864894     0.02600
H3050       H  0.08470158  0.84202064  0.73183972     0.06100
H3051       H  0.17494698  0.84649935  0.78628028     0.05100
H3052       H  0.14956474  0.83890502  0.80485205    -0.00700
H3053       H  0.14501413  0.85293138  0.77584636     0.00800
H3054       H  0.15706397  0.73099315  0.75218195     0.04500
H3055       H  0.15864763  0.74583179  0.72316209     0.06400
H3056       H  0.13018983  0.74075101  0.73757918     0.07300
C3057       C  0.94836817  0.83497791  0.77650095    -0.22400
C3058       C  0.93645758  0.81846290  0.79131904     0.09600
C3059       C  0.94604321  0.81250330  0.81403593     0.10000
C3060       C  0.96796358  0.82269773  0.82114234    -0.17300
C3061       C  0.98018974  0.83865564  0.80598549    -0.27700
C3062       C  0.97016680  0.84527737  0.78365842     0.18300
C3063       C  0.91483430  0.80641393  0.78195590     0.12300
C3064       C  0.93320648  0.79530574  0.83059110    -0.12000
H3065       H  0.97573985  0.81800145  0.83837295     0.12600
C3066       C  0.98268100  0.86290489  0.76728746    -0.22900
H3067       H  0.94077869  0.83943855  0.75912364     0.08200
C3068       C  0.89188967  0.81705238  0.78349519     0.04600
C3069       C  0.87194856  0.80447028  0.77468511    -0.20100
C3070       C  0.87454128  0.78158136  0.76427233    -0.12400
C3071       C  0.89783844  0.77153562  0.76170990     0.13300
C3072       C  0.91763104  0.78399772  0.77091797    -0.22800
C3073       C  0.88843599  0.84136002  0.79490138    -0.05900
H3074       H  0.85412913  0.81212412  0.77686003     0.14800
C3075       C  0.90270314  0.74813407  0.74891215    -0.16100
H3076       H  0.93547618  0.77624415  0.76934246     0.09100
H3077       H  0.98461181  0.88046664  0.77653072     0.07000
H3078       H  0.97244561  0.86591383  0.75042442     0.08200
H3079       H  0.00079045  0.85598840  0.76243708     0.07200
H3080       H  0.93139712  0.77750265  0.82181256     0.02100
H3081       H  0.91502084  0.80238308  0.83489157     0.02600
H3082       H  0.94310628  0.79275360  0.84772545     0.06100
H3083       H  0.86923233  0.84691837  0.79492715     0.05100
H3084       H  0.89886505  0.85507567  0.78480547    -0.00700
H3085       H  0.89476946  0.84087840  0.81380088     0.00800
H3086       H  0.91634385  0.75110750  0.73461077     0.04500
H3087       H  0.88663415  0.74059600  0.73995870     0.06400
H3088       H  0.90983193  0.73472453  0.76188140     0.07300
C3089       C  0.00619796  0.31695565  0.52493607    -0.22400
C3090       C  0.02527986  0.30688760  0.51189164     0.09600
C3091       C  0.04484009  0.29650657  0.52425614     0.10000
C3092       C  0.04458000  0.29589167  0.54940767    -0.17300
C3093       C  0.02493248  0.30476477  0.56263113    -0.27700
C3094       C  0.00558856  0.31585264  0.55016449     0.18300
C3095       C  0.02416615  0.30657515  0.48528717     0.12300
C3096       C  0.06555370  0.28510073  0.51095557    -0.12000
H3097       H  0.05943917  0.28741127  0.55873785     0.12600
C3098       C  0.98441546  0.32687082  0.56308038    -0.22900
H3099       H  0.99144378  0.32522447  0.51524156     0.08200
C3100       C  0.00838720  0.29105026  0.47294878     0.04600
C3101       C  0.00915641  0.29022432  0.44777331    -0.20100
C3102       C  0.02587266  0.30393053  0.43467866    -0.12400
C3103       C  0.04161364  0.31955707  0.44710531     0.13300
C3104       C  0.04019147  0.32099773  0.47223588    -0.22800
C3105       C  0.99137719  0.27470398  0.48632024    -0.05900
H3106       H  0.99718553  0.27815854  0.43829722     0.14800
C3107       C  0.05975968  0.33496743  0.43411770    -0.16100
H3108       H  0.05211826  0.33296652  0.48188480     0.09100
H3109       H  0.97358349  0.31271959  0.57199565     0.07000
H3110       H  0.97225027  0.33649762  0.55049783     0.08200
H3111       H  0.99081544  0.34002224  0.57660779     0.07200
H3112       H  0.07506213  0.29878266  0.49998478     0.02100
H3113       H  0.05874174  0.27064169  0.49905268     0.02600
H3114       H  0.07887659  0.27702040  0.52344253     0.06100
H3115       H  0.98094176  0.26313133  0.47388833     0.05100
H3116       H  0.97838072  0.28551449  0.49692040    -0.00700
H3117       H  0.00170175  0.26282180  0.49860989     0.00800
H3118       H  0.06932386  0.34721468  0.44660164     0.04500
H3119       H  0.05058771  0.34615975  0.42036481     0.06400
H3120       H  0.07355737  0.32347187  0.42540924     0.07300
C3121       C  0.11239193  0.29860024  0.64415618    -0.22400
C3122       C  0.11335907  0.28157098  0.66265551     0.09600
C3123       C  0.09233961  0.26902572  0.66928903     0.10000
C3124       C  0.07088408  0.27344710  0.65680264    -0.17300
C3125       C  0.06988497  0.28999979  0.63765050    -0.27700
C3126       C  0.09106031  0.30285935  0.63136246     0.18300
C3127       C  0.13684551  0.27624737  0.67402239     0.12300
C3128       C  0.09265211  0.25056504  0.68915948    -0.12000
H3129       H  0.05490181  0.26345407  0.66175367     0.12600
C3130       C  0.09153667  0.32132674  0.61150991    -0.22900
H3131       H  0.12863963  0.30828223  0.63941542     0.08200
C3132       C  0.15474171  0.26310586  0.66172817     0.04600
C3133       C  0.17598819  0.25690441  0.67371082    -0.20100
C3134       C  0.17975037  0.26324078  0.69782985    -0.12400
C3135       C  0.16215536  0.27744844  0.70983334     0.13300
C3136       C  0.14096406  0.28376958  0.69765314    -0.22800
C3137       C  0.15113788  0.25486559  0.63620780    -0.05900
H3138       H  0.18938769  0.24626458  0.66435598     0.14800
C3139       C  0.16550410  0.28645278  0.73520239    -0.16100
H3140       H  0.12726779  0.29428386  0.70672814     0.09100
H3141       H  0.08864046  0.31251199  0.59388820     0.07000
H3142       H  0.10913837  0.33070416  0.61048623     0.08200
H3143       H  0.07744951  0.33512303  0.61470604     0.07200
H3144       H  0.09742017  0.25925911  0.70643043     0.02100
H3145       H  0.10606607  0.23635576  0.68500437     0.02600
H3146       H  0.07484096  0.24183272  0.69147737     0.06100
H3147       H  0.16666410  0.24415250  0.62959149     0.05100
H3148       H  0.14908131  0.27063618  0.62415970    -0.00700
H3149       H  0.13479376  0.24347992  0.63508955     0.00800
H3150       H  0.15082331  0.29887168  0.74066901     0.04500
H3151       H  0.18274190  0.29641284  0.73663931     0.06400
H3152       H  0.16531783  0.27122044  0.74808821     0.07300
C3153       C  0.91712113  0.24112552  0.68778570    -0.22400
C3154       C  0.91718776  0.26217355  0.67394272     0.09600
C3155       C  0.89582347  0.27556788  0.67118236     0.10000
C3156       C  0.87492522  0.26810003  0.68318315    -0.17300
C3157       C  0.87492029  0.24733571  0.69752020    -0.27700
C3158       C  0.89611297  0.23332940  0.69941823     0.18300
C3159       C  0.93960225  0.26929881  0.66157463     0.12300
C3160       C  0.89509036  0.29753763  0.65535228    -0.12000
H3161       H  0.85852547  0.27851157  0.68141305     0.12600
C3162       C  0.89634724  0.20961206  0.71262497    -0.22900
H3163       H  0.93350162  0.23062427  0.68918463     0.08200
C3164       C  0.95691599  0.28391285  0.67283756     0.04600
C3165       C  0.97784754  0.29024220  0.66020094    -0.20100
C3166       C  0.98167431  0.28242533  0.63650737    -0.12400
C3167       C  0.96430375  0.26749667  0.62538645     0.13300
C3168       C  0.94348327  0.26115377  0.63813351    -0.22800
C3169       C  0.95322612  0.29278981  0.69812829    -0.05900
H3170       H  0.99120252  0.30150174  0.66878002     0.14800
C3171       C  0.96791054  0.25730578  0.60054196    -0.16100
H3172       H  0.93009281  0.24973499  0.62981522     0.09100
H3173       H  0.89284624  0.21244902  0.73203724     0.07000
H3174       H  0.91398407  0.20035685  0.71091194     0.08200
H3175       H  0.88235237  0.19755537  0.70509622     0.07200
H3176       H  0.89999718  0.29254448  0.63666928     0.02100
H3177       H  0.90799107  0.31116957  0.66205050     0.02600
H3178       H  0.87689737  0.30575127  0.65495698     0.06100
H3179       H  0.96848663  0.30408510  0.70424351     0.05100
H3180       H  0.95157886  0.27725450  0.71056873    -0.00700
H3181       H  0.93655451  0.30375348  0.69910617     0.00800
H3182       H  0.95339230  0.24453185  0.59564678     0.04500
H3183       H  0.98527841  0.24746452  0.59965982     0.06400
H3184       H  0.96772930  0.27191805  0.58699133     0.07300
C3185       C  0.04763430  0.99051963  0.82074054    -0.22400
C3186       C  0.03329096  0.98228898  0.83968494     0.09600
C3187       C  0.02008316  0.99875623  0.85374128     0.10000
C3188       C  0.01992024  0.02312355  0.84709401    -0.17300
C3189       C  0.03327490  0.03112640  0.82722200    -0.27700
C3190       C  0.04785733  0.01476834  0.81429609     0.18300
C3191       C  0.02945307  0.95615291  0.84118681     0.12300
C3192       C  0.00629082  0.99056865  0.87558544    -0.12000
H3193       H  0.00918175  0.03588363  0.85718889     0.12600
C3194       C  0.06247239  0.02238270  0.79270261    -0.22900
H3195       H  0.05764962  0.97761661  0.81008285     0.08200
C3196       C  0.00982672  0.94574266  0.82908170     0.04600
C3197       C  0.00901473  0.92083054  0.82633947    -0.20100
C3198       C  0.02786720  0.90599974  0.83436355    -0.12400
C3199       C  0.04735661  0.91644506  0.84700399     0.13300
C3200       C  0.04776786  0.94148261  0.85039912    -0.22800
C3201       C  0.99061167  0.96098065  0.81736988    -0.05900
H3202       H  0.99417790  0.91310097  0.81640786     0.14800
C3203       C  0.06778520  0.90156200  0.85682154    -0.16100
H3204       H  0.06301208  0.94981535  0.85918084     0.09100
H3205       H  0.05064703  0.03121696  0.77925907     0.07000
H3206       H  0.07131441  0.00682822  0.78383472     0.08200
H3207       H  0.07687831  0.03497108  0.79824714     0.07200
H3208       H  0.01888247  0.98213114  0.88857157     0.02100
H3209       H  0.99240124  0.97721910  0.87059772     0.02600
H3210       H  0.99718516  0.00583751  0.88468277     0.06100
H3211       H  0.97702585  0.94984352  0.80794326     0.05100
H3212       H  0.99889980  0.97319956  0.80391588    -0.00700
H3213       H  0.98101337  0.97185278  0.83101655     0.00800
H3214       H  0.08035219  0.91258811  0.86768701     0.04500
H3215       H  0.07836825  0.89360269  0.84190920     0.06400
H3216       H  0.06059795  0.88707737  0.86854429     0.07300
C3217       C  0.11392056  0.11502132  0.80435307    -0.22400
C3218       C  0.11286461  0.13017646  0.78435883     0.09600
C3219       C  0.09141969  0.13275590  0.77130766     0.10000
C3220       C  0.07119309  0.11981671  0.77856013    -0.17300
C3221       C  0.07199421  0.10431607  0.79854643    -0.27700
C3222       C  0.09376387  0.10185923  0.81165244     0.18300
C3223       C  0.13452587  0.14330608  0.77732574     0.12300
C3224       C  0.08990208  0.14928921  0.74986472    -0.12000
H3225       H  0.05475096  0.12163595  0.76828576     0.12600
C3226       C  0.09607634  0.08589416  0.83346808    -0.22900
H3227       H  0.13068868  0.11344250  0.81416248     0.08200
C3228       C  0.14077786  0.16488967  0.78871461     0.04600
C3229       C  0.16113546  0.17718739  0.78085707    -0.20100
C3230       C  0.17580639  0.16799511  0.76235512    -0.12400
C3231       C  0.16934479  0.14617813  0.75094720     0.13300
C3232       C  0.14857678  0.13420105  0.75857695    -0.22800
C3233       C  0.12607279  0.17478453  0.80923795    -0.05900
H3234       H  0.16593583  0.19377293  0.78979566     0.14800
C3235       C  0.18376765  0.13547099  0.73062642    -0.16100
H3236       H  0.14326058  0.11754608  0.75001490     0.09100
H3237       H  0.08208871  0.09064489  0.84691256     0.07000
H3238       H  0.11389264  0.08786799  0.84224635     0.08200
H3239       H  0.09431645  0.06675350  0.82821136     0.07200
H3240       H  0.10282966  0.14340779  0.73582889     0.02100
H3241       H  0.09428758  0.16794326  0.75538904     0.02600
H3242       H  0.07162683  0.14936025  0.74184041     0.06100
H3243       H  0.13313436  0.19227970  0.81564405     0.05100
H3244       H  0.12640913  0.16196695  0.82454461    -0.00700
H3245       H  0.10719044  0.17757263  0.80340402     0.00800
H3246       H  0.20162752  0.12950110  0.73722144     0.04500
H3247       H  0.18599783  0.14891754  0.71602512     0.06400
H3248       H  0.17477864  0.11945525  0.72285680     0.07300
C3249       C  0.90588301  0.14054783  0.78934060    -0.22400
C3250       C  0.91831066  0.12962330  0.77041965     0.09600
C3251       C  0.90865799  0.12997187  0.74701308     0.10000
C3252       C  0.88686275  0.14202986  0.74290545    -0.17300
C3253       C  0.87486088  0.15375098  0.76172771    -0.27700
C3254       C  0.88425161  0.15269484  0.78532963     0.18300
C3255       C  0.94164542  0.11836216  0.77590888     0.12300
C3256       C  0.92150986  0.11794109  0.72646492    -0.12000
H3257       H  0.87947894  0.14284731  0.72490368     0.12600
C3258       C  0.87147394  0.16401969  0.80643264    -0.22900
H3259       H  0.91340738  0.13983538  0.80729192     0.08200
C3260       C  0.96246914  0.13239693  0.77868936     0.04600
C3261       C  0.98353970  0.12150327  0.78704873    -0.20100
C3262       C  0.98445223  0.09675963  0.79257262    -0.12400
C3263       C  0.96356977  0.08255035  0.78868729     0.13300
C3264       C  0.94240152  0.09368940  0.78059869    -0.22800
C3265       C  0.96239466  0.15889826  0.77291555    -0.05900
H3266       H  0.99931777  0.13262549  0.78954209     0.14800
C3267       C  0.96318712  0.05572167  0.79252509    -0.16100
H3268       H  0.92614821  0.08319759  0.77828885     0.09100
H3269       H  0.87123776  0.18384136  0.80442881     0.07000
H3270       H  0.88056786  0.15983449  0.82370174     0.08200
H3271       H  0.85275040  0.15725737  0.80765461     0.07200
H3272       H  0.92329774  0.09841018  0.73018407     0.02100
H3273       H  0.93969053  0.12587848  0.72422742     0.02600
H3274       H  0.91159126  0.12016227  0.70929269     0.06100
H3275       H  0.98038079  0.16712388  0.77562229     0.05100
H3276       H  0.94937323  0.16841136  0.78468378    -0.00700
H3277       H  0.95718785  0.16163532  0.75385273     0.00800
H3278       H  0.94568355  0.04772684  0.78723738     0.04500
H3279       H  0.96596442  0.05147134  0.81180595     0.06400
H3280       H  0.97737253  0.04707996  0.78142316     0.07300
C3281       C  0.33992896  0.09663659  0.27434593    -0.22400
C3282       C  0.35476741  0.09537615  0.29457917     0.09600
C3283       C  0.35851838  0.11617830  0.30859670     0.10000
C3284       C  0.34687536  0.13777143  0.30219086    -0.17300
C3285       C  0.33168764  0.13891862  0.28204321    -0.27700
C3286       C  0.32850080  0.11811759  0.26775834     0.18300
C3287       C  0.36758967  0.07240334  0.29914031     0.12300
C3288       C  0.37479444  0.11553738  0.33017458    -0.12000
H3289       H  0.34949025  0.15372995  0.31299647     0.12600
C3290       C  0.31404434  0.11868198  0.24483666    -0.22900
H3291       H  0.33766173  0.08072400  0.26336417     0.08200
C3292       C  0.35632023  0.05278739  0.31063827     0.04600
C3293       C  0.36825384  0.03047360  0.31170159    -0.20100
C3294       C  0.39125378  0.02730440  0.30151469    -0.12400
C3295       C  0.40233972  0.04711034  0.28979208     0.13300
C3296       C  0.39039758  0.06935210  0.28894344    -0.22800
C3297       C  0.33169876  0.05545070  0.32166783    -0.05900
H3298       H  0.35958889  0.01545492  0.32061157     0.14800
C3299       C  0.42612612  0.04481723  0.27692218    -0.16100
H3300       H  0.39859723  0.08438721  0.27961375     0.09100
H3301       H  0.29479142  0.12202830  0.24885990     0.07000
H3302       H  0.31516687  0.10137795  0.23497172     0.08200
H3303       H  0.32099358  0.13302665  0.23279338     0.07200
H3304       H  0.39329252  0.11049574  0.32455210     0.02100
H3305       H  0.36804171  0.10210563  0.34332297     0.02600
H3306       H  0.37564858  0.13329058  0.33924259     0.06100
H3307       H  0.32541816  0.03839675  0.32996108     0.05100
H3308       H  0.31851139  0.06078636  0.30768187    -0.00700
H3309       H  0.33216498  0.06946437  0.33583898     0.00800
H3310       H  0.42531485  0.02985366  0.26376755     0.04500
H3311       H  0.44078105  0.04155909  0.29002051     0.06400
H3312       H  0.43078055  0.06145301  0.26688642     0.07300
C3313       C  0.36308469  0.85428050  0.27948440    -0.22400
C3314       C  0.35360756  0.86845484  0.29797090     0.09600
C3315       C  0.33410738  0.85985460  0.31172659     0.10000
C3316       C  0.32388338  0.83753487  0.30593144    -0.17300
C3317       C  0.33285206  0.82355448  0.28693874    -0.27700
C3318       C  0.35310845  0.83184438  0.27393263     0.18300
C3319       C  0.36392975  0.89266008  0.30161505     0.12300
C3320       C  0.32370820  0.87444995  0.33202844    -0.12000
H3321       H  0.30867846  0.83116271  0.31608348     0.12600
C3322       C  0.36384212  0.81748848  0.25369855    -0.22900
H3323       H  0.37817742  0.86102840  0.26912323     0.08200
C3324       C  0.38316314  0.89647835  0.31756978     0.04600
C3325       C  0.39381745  0.91926561  0.31868159    -0.20100
C3326       C  0.38626621  0.93819433  0.30367842    -0.12400
C3327       C  0.36700767  0.93423048  0.28752369     0.13300
C3328       C  0.35592196  0.91153538  0.28692717    -0.22800
C3329       C  0.39310744  0.87629127  0.33268984    -0.05900
H3330       H  0.40855964  0.92215435  0.33102547     0.14800
C3331       C  0.35898205  0.95319291  0.26989753    -0.16100
H3332       H  0.34146855  0.90817791  0.27432220     0.09100
H3333       H  0.37887480  0.82716689  0.24476735     0.07000
H3334       H  0.34994192  0.81364683  0.23992766     0.08200
H3335       H  0.37110055  0.80039168  0.26098012     0.07200
H3336       H  0.31724607  0.89202252  0.32509849     0.02100
H3337       H  0.33758920  0.87763383  0.34593528     0.02600
H3338       H  0.30832377  0.86513794  0.34074697     0.06100
H3339       H  0.40852108  0.88229976  0.34382853     0.05100
H3340       H  0.39947508  0.86151880  0.32088686    -0.00700
H3341       H  0.37901984  0.86926243  0.34493123     0.00800
H3342       H  0.34470728  0.94640995  0.25773099     0.04500
H3343       H  0.37444802  0.95891345  0.25860812     0.06400
H3344       H  0.35155139  0.96891964  0.27964256     0.07300
C3345       C  0.26011017  0.05416282  0.16425162    -0.22400
C3346       C  0.25822423  0.07493568  0.15027184     0.09600
C3347       C  0.25080781  0.07334061  0.12622769     0.10000
C3348       C  0.24415538  0.05090862  0.11697493    -0.17300
C3349       C  0.24509167  0.02978668  0.13109890    -0.27700
C3350       C  0.25391740  0.03155322  0.15505525     0.18300
C3351       C  0.26217635  0.09830549  0.16202864     0.12300
C3352       C  0.24983810  0.09535111  0.11043684    -0.12000
H3353       H  0.23808875  0.05006758  0.09851855     0.12600
C3354       C  0.25707570  0.01013839  0.17135260    -0.22900
H3355       H  0.26610209  0.05580664  0.18270819     0.08200
C3356       C  0.24308117  0.11000702  0.17392321     0.04600
C3357       C  0.24775738  0.13097727  0.18683817    -0.20100
C3358       C  0.27098510  0.14064227  0.18789346    -0.12400
C3359       C  0.29012850  0.12920300  0.17558560     0.13300
C3360       C  0.28541492  0.10803458  0.16274495    -0.22800
C3361       C  0.21780140  0.10025738  0.17315568    -0.05900
H3362       H  0.23316580  0.13995200  0.19619970     0.14800
C3363       C  0.31571817  0.13814773  0.17636178    -0.16100
H3364       H  0.30000426  0.09877578  0.15368286     0.09100
H3365       H  0.26401035  0.01531591  0.18931635     0.07000
H3366       H  0.27044000  0.99766515  0.16335989     0.08200
H3367       H  0.23956509  0.00101293  0.17424673     0.07200
H3368       H  0.26802717  0.10348856  0.10919269     0.02100
H3369       H  0.23717620  0.10873786  0.11811473     0.02600
H3370       H  0.24376641  0.09096815  0.09195846     0.06100
H3371       H  0.20506477  0.11170043  0.18346381     0.05100
H3372       H  0.21736086  0.08190579  0.18099680    -0.00700
H3373       H  0.21145626  0.09950318  0.15427983     0.00800
H3374       H  0.32756852  0.12380393  0.18363888     0.04500
H3375       H  0.31804199  0.15421160  0.18784381     0.06400
H3376       H  0.32178774  0.14273573  0.15789796     0.07300
C3377       C  0.23496469  0.89707880  0.13650937    -0.22400
C3378       C  0.24868260  0.89781154  0.15749604     0.09600
C3379       C  0.25678660  0.91996451  0.16642696     0.10000
C3380       C  0.25080626  0.94110438  0.15419095    -0.17300
C3381       C  0.23720363  0.94081783  0.13285225    -0.27700
C3382       C  0.22922465  0.91818584  0.12384945     0.18300
C3383       C  0.25478795  0.87508238  0.16972673     0.12300
C3384       C  0.27200284  0.92126505  0.18877463    -0.12000
H3385       H  0.25725938  0.95791617  0.16134823     0.12600
C3386       C  0.21474530  0.91560455  0.10110983    -0.22900
H3387       H  0.22894221  0.87977604  0.12991070     0.08200
C3388       C  0.24000909  0.86565682  0.18798106     0.04600
C3389       C  0.24724763  0.84475807  0.19998154    -0.20100
C3390       C  0.26840492  0.83241818  0.19349562    -0.12400
C3391       C  0.28303362  0.84180358  0.17484489     0.13300
C3392       C  0.27608613  0.86320707  0.16335099    -0.22800
C3393       C  0.21648796  0.87747202  0.19456824    -0.05900
H3394       H  0.23590085  0.83766508  0.21416788     0.14800
C3395       C  0.30626181  0.82994085  0.16743734    -0.16100
H3396       H  0.28730339  0.87079528  0.14931115     0.09100
H3397       H  0.20981594  0.89660068  0.09753291     0.07000
H3398       H  0.22538185  0.92190960  0.08542647     0.08200
H3399       H  0.19775258  0.92594355  0.10271162     0.07200
H3400       H  0.28886435  0.91089487  0.18607534     0.02100
H3401       H  0.26199472  0.91361225  0.20426317     0.02600
H3402       H  0.27695604  0.94006395  0.19326317     0.06100
H3403       H  0.20704657  0.86761289  0.20917238     0.05100
H3404       H  0.20448531  0.87786187  0.17864856    -0.00700
H3405       H  0.21971287  0.89614735  0.20073549     0.00800
H3406       H  0.30259551  0.81207046  0.15944413     0.04500
H3407       H  0.31819277  0.82789465  0.18328967     0.06400
H3408       H  0.31602896  0.84071662  0.15372641     0.07300
C3409       C  0.66203405  0.05607695  0.70861693    -0.22400
C3410       C  0.68458050  0.05678013  0.69740276     0.09600
C3411       C  0.69312096  0.03647687  0.68491082     0.10000
C3412       C  0.67907780  0.01554814  0.68442156    -0.17300
C3413       C  0.65666783  0.01456119  0.69609080    -0.27700
C3414       C  0.64788010  0.03523485  0.70811207     0.18300
C3415       C  0.69983728  0.07816977  0.70113927     0.12300
C3416       C  0.71714896  0.03688256  0.67238313    -0.12000
H3417       H  0.68572356  0.99979203  0.67507894     0.12600
C3418       C  0.62426026  0.03518299  0.72149577    -0.22900
H3419       H  0.65581712  0.07175494  0.71838014     0.08200
C3420       C  0.69708813  0.09927673  0.68736271     0.04600
C3421       C  0.71052897  0.11976449  0.69336904    -0.20100
C3422       C  0.72719640  0.11923865  0.71231755    -0.12400
C3423       C  0.73056948  0.09764407  0.72546628     0.13300
C3424       C  0.71658916  0.07750005  0.71984914    -0.22800
C3425       C  0.68018361  0.10002511  0.66627394    -0.05900
H3426       H  0.70813868  0.13620944  0.68317008     0.14800
C3427       C  0.74817079  0.09585047  0.74601363    -0.16100
H3428       H  0.71851452  0.06112279  0.73026859     0.09100
H3429       H  0.60914791  0.03290370  0.70871299     0.07000
H3430       H  0.62120544  0.05232076  0.73125021     0.08200
H3431       H  0.62407469  0.02038497  0.73491350     0.07200
H3432       H  0.73167148  0.04004632  0.68566030     0.02100
H3433       H  0.71739874  0.05150010  0.65877865     0.02600
H3434       H  0.72094619  0.01964099  0.66308042     0.06100
H3435       H  0.68036547  0.11785634  0.65725993     0.05100
H3436       H  0.66153729  0.09627304  0.67235465    -0.00700
H3437       H  0.68564410  0.08626103  0.65290054     0.00800
H3438       H  0.74728043  0.07806457  0.75507163     0.04500
H3439       H  0.74416218  0.10985511  0.75964342     0.06400
H3440       H  0.76681830  0.09811842  0.73924690     0.07300
C3441       C  0.70472525  0.84724477  0.69499556    -0.22400
C3442       C  0.70020107  0.86256427  0.71448768     0.09600
C3443       C  0.70864313  0.85636576  0.73755054     0.10000
C3444       C  0.72152173  0.83493408  0.74063497    -0.17300
C3445       C  0.72566672  0.81934094  0.72131543    -0.27700
C3446       C  0.71716150  0.82547387  0.69816462     0.18300
C3447       C  0.68588326  0.88465501  0.71062858     0.12300
C3448       C  0.70388107  0.87227635  0.75891410    -0.12000
H3449       H  0.72797878  0.83002697  0.75835770     0.12600
C3450       C  0.72080538  0.80956860  0.67658402    -0.22900
H3451       H  0.69815870  0.85212429  0.67731042     0.08200
C3452       C  0.69667275  0.90625357  0.70310573     0.04600
C3453       C  0.68235419  0.92679296  0.70011011    -0.20100
C3454       C  0.65739753  0.92644304  0.70470173    -0.12400
C3455       C  0.64675035  0.90462816  0.71282391     0.13300
C3456       C  0.66118908  0.88404744  0.71545908    -0.22800
C3457       C  0.72334863  0.90766669  0.69850494    -0.05900
H3458       H  0.69085504  0.94322965  0.69402488     0.14800
C3459       C  0.62051508  0.90270829  0.71951466    -0.16100
H3460       H  0.65325180  0.86733217  0.72160494     0.09100
H3461       H  0.73137595  0.81937187  0.66274914     0.07000
H3462       H  0.70306667  0.80471074  0.66886584     0.08200
H3463       H  0.73042182  0.79267462  0.68098940     0.07200
H3464       H  0.68419882  0.87409583  0.76179021     0.02100
H3465       H  0.71174989  0.89033489  0.75574087     0.02600
H3466       H  0.71188895  0.86480037  0.77560527     0.06100
H3467       H  0.72896429  0.92603178  0.69301812     0.05100
H3468       H  0.72840669  0.89502321  0.68393576    -0.00700
H3469       H  0.73330793  0.90281778  0.71509630     0.00800
H3470       H  0.60910298  0.90540617  0.70340264     0.04500
H3471       H  0.61601054  0.91624512  0.73345870     0.06400
H3472       H  0.61603219  0.88471988  0.72696504     0.07300
C3473       C  0.83243796  0.03834721  0.82998495    -0.22400
C3474       C  0.82771969  0.05809086  0.84477355     0.09600
C3475       C  0.83277385  0.05662964  0.86950536     0.10000
C3476       C  0.84158907  0.03493511  0.87901678    -0.17300
C3477       C  0.84565788  0.01461349  0.86435875    -0.27700
C3478       C  0.84182529  0.01686495  0.83921125     0.18300
C3479       C  0.81816456  0.08017136  0.83336528     0.12300
C3480       C  0.82917412  0.07799033  0.88574671    -0.12000
H3481       H  0.84496726  0.03389636  0.89811874     0.12600
C3482       C  0.84814061  0.99729070  0.82159021    -0.22900
H3483       H  0.82882311  0.03988186  0.81090229     0.08200
C3484       C  0.83248966  0.09358662  0.81729620     0.04600
C3485       C  0.82197785  0.11225533  0.80419228    -0.20100
C3486       C  0.79771162  0.11852144  0.80729951    -0.12400
C3487       C  0.78354427  0.10584228  0.82418170     0.13300
C3488       C  0.79390940  0.08648833  0.83680733    -0.22800
C3489       C  0.85896594  0.08846938  0.81413756    -0.05900
H3490       H  0.83291622  0.12224905  0.79151039     0.14800
C3491       C  0.75745568  0.11201008  0.82821692    -0.16100
H3492       H  0.78298942  0.07595176  0.84905614     0.09100
H3493       H  0.86714831  0.99174397  0.82419253     0.07000
H3494       H  0.84630055  0.00345004  0.80268478     0.08200
H3495       H  0.83590112  0.98172652  0.82384651     0.07200
H3496       H  0.80996766  0.08343198  0.88579806     0.02100
H3497       H  0.84031099  0.09326349  0.87929895     0.02600
H3498       H  0.83444979  0.07391356  0.90455946     0.06100
H3499       H  0.86758227  0.10140262  0.80157522     0.05100
H3500       H  0.86172767  0.07018154  0.80674559    -0.00700
H3501       H  0.86819134  0.08989585  0.83175239     0.00800
H3502       H  0.74750983  0.11094661  0.81096846     0.04500
H3503       H  0.75584221  0.13044711  0.83562487     0.06400
H3504       H  0.74882875  0.09947875  0.84117451     0.07300
C3505       C  0.84457222  0.89567019  0.83438422    -0.22400
C3506       C  0.82502614  0.88385982  0.84522861     0.09600
C3507       C  0.81512003  0.89311787  0.86669183     0.10000
C3508       C  0.82479750  0.91410094  0.87663003    -0.17300
C3509       C  0.84379685  0.92631043  0.86541391    -0.27700
C3510       C  0.85385132  0.91705876  0.84404414     0.18300
C3511       C  0.81466424  0.86232619  0.83341211     0.12300
C3512       C  0.79388144  0.88135595  0.87875964    -0.12000
H3513       H  0.81707111  0.92141573  0.89296526     0.12600
C3514       C  0.87447384  0.92949220  0.83164890    -0.22900
H3515       H  0.85230377  0.88830661  0.81808380     0.08200
C3516       C  0.80182229  0.86415351  0.81161935     0.04600
C3517       C  0.79247345  0.84329005  0.80100889    -0.20100
C3518       C  0.79520064  0.82063540  0.81186999    -0.12400
C3519       C  0.80770829  0.81894635  0.83399773     0.13300
C3520       C  0.81744087  0.83978379  0.84434216    -0.22800
C3521       C  0.79767452  0.88813971  0.79968890    -0.05900
H3522       H  0.78310172  0.84463554  0.78399362     0.14800
C3523       C  0.81195275  0.79516075  0.84621263    -0.16100
H3524       H  0.82748316  0.83849515  0.86097445     0.09100
H3525       H  0.88067633  0.91936765  0.81560242     0.07000
H3526       H  0.88986145  0.93121709  0.84421113     0.08200
H3527       H  0.86878079  0.94761121  0.82561934     0.07200
H3528       H  0.79873711  0.86295836  0.88474492     0.02100
H3529       H  0.77857661  0.88038885  0.86601304     0.02600
H3530       H  0.78785925  0.89156516  0.89482107     0.06100
H3531       H  0.78657893  0.88640027  0.78321166     0.05100
H3532       H  0.81509344  0.89630710  0.79441636    -0.00700
H3533       H  0.78813895  0.90034996  0.81228101     0.00800
H3534       H  0.82133208  0.78293738  0.83360888     0.04500
H3535       H  0.79455171  0.78712120  0.85176992     0.06400
H3536       H  0.82326381  0.79698994  0.86254204     0.07300
C3537       C  0.33594609  0.29276887  0.12097264    -0.22400
C3538       C  0.32074625  0.31145001  0.11351474     0.09600
C3539       C  0.30370688  0.32108842  0.12972187     0.10000
C3540       C  0.30099835  0.31059448  0.15246533    -0.17300
C3541       C  0.31488003  0.29067289  0.15927673    -0.27700
C3542       C  0.33329360  0.28228775  0.14380449     0.18300
C3543       C  0.32157172  0.31976123  0.08826357     0.12300
C3544       C  0.28815032  0.34224419  0.12289638    -0.12000
H3545       H  0.28710539  0.31716119  0.16448694     0.12600
C3546       C  0.35023593  0.26248435  0.15137834    -0.22900
H3547       H  0.34931921  0.28582924  0.10859349     0.08200
C3548       C  0.33976917  0.33521292  0.07977174     0.04600
C3549       C  0.33754712  0.34536130  0.05681088    -0.20100
C3550       C  0.31749097  0.34054976  0.04227866    -0.12400
C3551       C  0.29965303  0.32437256  0.05055454     0.13300
C3552       C  0.30230999  0.31373446  0.07322211    -0.22800
C3553       C  0.36110475  0.34153838  0.09512420    -0.05900
H3554       H  0.35136569  0.35747906  0.05029601     0.14800
C3555       C  0.27677990  0.31919031  0.03704764    -0.16100
H3556       H  0.28840860  0.30176894  0.07988944     0.09100
H3557       H  0.36453524  0.25938730  0.13775995     0.07000
H3558       H  0.34033427  0.24535684  0.15375124     0.08200
H3559       H  0.35909422  0.26740068  0.16855156     0.07200
H3560       H  0.27640543  0.33755073  0.10752219     0.02100
H3561       H  0.29971379  0.35771740  0.11784723     0.02600
H3562       H  0.27636037  0.34791479  0.13797697     0.06100
H3563       H  0.37338525  0.35427258  0.08582910     0.05100
H3564       H  0.37148278  0.32503832  0.09943689    -0.00700
H3565       H  0.35490090  0.35006474  0.11205893     0.00800
H3566       H  0.27634771  0.29993979  0.03183386     0.04500
H3567       H  0.27459910  0.33042409  0.02081071     0.06400
H3568       H  0.26106402  0.32299184  0.04880266     0.07300
C3569       C  0.29300114  0.30833966  0.92914437    -0.22400
C3570       C  0.30823519  0.31491478  0.91023278     0.09600
C3571       C  0.32462556  0.33394511  0.91316805     0.10000
C3572       C  0.32518561  0.34635709  0.93503812    -0.17300
C3573       C  0.31010918  0.33976880  0.95422913    -0.27700
C3574       C  0.29386521  0.32034248  0.95126014     0.18300
C3575       C  0.30615105  0.30220154  0.88712397     0.12300
C3576       C  0.34174991  0.34083677  0.89331515    -0.12000
H3577       H  0.33784853  0.36096923  0.93733233     0.12600
C3578       C  0.27699394  0.31243293  0.97093560    -0.22900
H3579       H  0.28044723  0.29368576  0.92655496     0.08200
C3580       C  0.31757141  0.27996002  0.88310175     0.04600
C3581       C  0.31511493  0.26880256  0.86067450    -0.20100
C3582       C  0.30144937  0.27943009  0.84224608    -0.12400
C3583       C  0.28975095  0.30170613  0.84657994     0.13300
C3584       C  0.29242298  0.31281871  0.86896344    -0.22800
C3585       C  0.33233348  0.26811347  0.90246255    -0.05900
H3586       H  0.32381300  0.25163454  0.85754970     0.14800
C3587       C  0.27346320  0.31340938  0.82832074    -0.16100
H3588       H  0.28353199  0.32981125  0.87249976     0.09100
H3589       H  0.26444005  0.29822412  0.96472918     0.07000
H3590       H  0.26604588  0.32793597  0.97712783     0.08200
H3591       H  0.28743221  0.30480897  0.98609872     0.07200
H3592       H  0.33151056  0.34647190  0.87715453     0.02100
H3593       H  0.35329725  0.32520794  0.88868308     0.02600
H3594       H  0.35362422  0.35593700  0.89866486     0.06100
H3595       H  0.34026382  0.25086421  0.89626554     0.05100
H3596       H  0.32082952  0.26431631  0.91834346    -0.00700
H3597       H  0.34724515  0.28019614  0.90786773     0.00800
H3598       H  0.26475791  0.32988666  0.83550599     0.04500
H3599       H  0.25896050  0.30073105  0.82317425     0.06400
H3600       H  0.28394365  0.31881464  0.81221753     0.07300
C3601       C  0.18950910  0.24013053  0.12558326    -0.22400
C3602       C  0.19906384  0.25904439  0.11192246     0.09600
C3603       C  0.22019518  0.27078226  0.11940238     0.10000
C3604       C  0.23169301  0.26297910  0.14032661    -0.17300
C3605       C  0.22239158  0.24385080  0.15383689    -0.27700
C3606       C  0.20095252  0.23243624  0.14664259     0.18300
C3607       C  0.18795185  0.26490223  0.08869799     0.12300
C3608       C  0.23073649  0.29127184  0.10512070    -0.12000
H3609       H  0.24784777  0.27203842  0.14638096     0.12600
C3610       C  0.19041742  0.21206971  0.16097641    -0.22900
H3611       H  0.17330502  0.23119238  0.11951899     0.08200
C3612       C  0.19389206  0.25157519  0.06805639     0.04600
C3613       C  0.18346809  0.25783102  0.04611372    -0.20100
C3614       C  0.16713143  0.27700798  0.04438879    -0.12400
C3615       C  0.16153704  0.29068476  0.06507212     0.13300
C3616       C  0.17207762  0.28440227  0.08709747    -0.22800
C3617       C  0.21119725  0.23071687  0.06925014    -0.05900
H3618       H  0.18750308  0.24713030  0.03038996     0.14800
C3619       C  0.14512536  0.31223685  0.06390977    -0.16100
H3620       H  0.16799895  0.29469389  0.10312053     0.09100
H3621       H  0.17389189  0.20475881  0.15252424     0.07000
H3622       H  0.18560191  0.21873948  0.17905616     0.08200
H3623       H  0.20375698  0.19728582  0.16262219     0.07200
H3624       H  0.21747784  0.30615919  0.10388899     0.02100
H3625       H  0.23537712  0.28506047  0.08673947     0.02600
H3626       H  0.24733483  0.29841655  0.11357448     0.06100
H3627       H  0.21401666  0.22237414  0.05134968     0.05100
H3628       H  0.20407328  0.21670642  0.08156836    -0.00700
H3629       H  0.22890278  0.23698258  0.07596452     0.00800
H3630       H  0.12662547  0.30665637  0.05906259     0.04500
H3631       H  0.15200105  0.32519146  0.05034664     0.06400
H3632       H  0.14407620  0.32164926  0.08146568     0.07300
C3633       C  0.19798650  0.24856091  0.93362981    -0.22400
C3634       C  0.18925447  0.25858037  0.91234806     0.09600
C3635       C  0.17029983  0.27536507  0.91296643     0.10000
C3636       C  0.16000569  0.28137322  0.93516054    -0.17300
C3637       C  0.16848297  0.27113948  0.95666027    -0.27700
C3638       C  0.18796294  0.25462568  0.95585767     0.18300
C3639       C  0.19995590  0.25045207  0.88962544     0.12300
C3640       C  0.16109101  0.28693290  0.89026889    -0.12000
H3641       H  0.14516223  0.29401597  0.93572714     0.12600
C3642       C  0.19771987  0.24236457  0.97796964    -0.22900
H3643       H  0.21254886  0.23559782  0.93271970     0.08200
C3644       C  0.22304085  0.25812571  0.88254262     0.04600
C3645       C  0.23304031  0.24883885  0.86152173    -0.20100
C3646       C  0.22039927  0.23226951  0.84745855    -0.12400
C3647       C  0.19737930  0.22434751  0.85462687     0.13300
C3648       C  0.18738708  0.23361571  0.87576693    -0.22800
C3649       C  0.23689175  0.27645441  0.89680909    -0.05900
H3650       H  0.25053416  0.25514371  0.85557841     0.14800
C3651       C  0.18324806  0.20590532  0.84079526    -0.16100
H3652       H  0.16981515  0.22750552  0.88164705     0.09100
H3653       H  0.20602743  0.25583224  0.99004770     0.07000
H3654       H  0.21187913  0.22898444  0.97348938     0.08200
H3655       H  0.18302600  0.23268875  0.98742434     0.07200
H3656       H  0.15398165  0.27299265  0.87794853     0.02100
H3657       H  0.17595157  0.29672968  0.88119078     0.02600
H3658       H  0.14639133  0.29994073  0.89402329     0.06100
H3659       H  0.25442789  0.28075241  0.88825336     0.05100
H3660       H  0.24056935  0.26946903  0.91511860    -0.00700
H3661       H  0.22631012  0.29333646  0.89814608     0.00800
H3662       H  0.17880064  0.19052547  0.85274424     0.04500
H3663       H  0.19327539  0.19862360  0.82518797     0.06400
H3664       H  0.16628827  0.21415502  0.83427393     0.07300
C3665       C  0.71724291  0.63598604  0.06864628    -0.22400
C3666       C  0.73092530  0.62581869  0.08711113     0.09600
C3667       C  0.74121575  0.60285618  0.08405727     0.10000
C3668       C  0.73799604  0.59075933  0.06218279    -0.17300
C3669       C  0.72522145  0.60136436  0.04307824    -0.27700
C3670       C  0.71435711  0.62420744  0.04658354     0.18300
C3671       C  0.73500673  0.64009536  0.10909400     0.12300
C3672       C  0.75624380  0.59152657  0.10355423    -0.12000
H3673       H  0.74628751  0.57329360  0.05970399     0.12600
C3674       C  0.69937302  0.63627658  0.02749070    -0.22900
H3675       H  0.70924128  0.65355710  0.07138712     0.08200
C3676       C  0.75152462  0.65930599  0.10925413     0.04600
C3677       C  0.75485029  0.67239241  0.13043806    -0.20100
C3678       C  0.74283207  0.66613811  0.15172763    -0.12400
C3679       C  0.72580285  0.64721407  0.15136989     0.13300
C3680       C  0.72197786  0.63454548  0.12993000    -0.22800
C3681       C  0.76624070  0.66547767  0.08732919    -0.05900
H3682       H  0.76760689  0.68703206  0.13061410     0.14800
C3683       C  0.71107394  0.64077755  0.17318992    -0.16100
H3684       H  0.70899917  0.62002975  0.12944073     0.09100
H3685       H  0.71081967  0.64144105  0.01198821     0.07000
H3686       H  0.69077456  0.65299702  0.03423931     0.08200
H3687       H  0.68485548  0.62398877  0.02151642     0.07200
H3688       H  0.74524834  0.58906250  0.12003725     0.02100
H3689       H  0.77181450  0.60328353  0.10770990     0.02600
H3690       H  0.76327762  0.57365176  0.09809524     0.06100
H3691       H  0.77882936  0.68056102  0.09081295     0.05100
H3692       H  0.75422730  0.67087008  0.07236093    -0.00700
H3693       H  0.77703047  0.64960714  0.08179465     0.00800
H3694       H  0.69723727  0.62702236  0.16903289     0.04500
H3695       H  0.70169165  0.65708692  0.17984588     0.06400
H3696       H  0.72272162  0.63325783  0.18751098     0.07300
C3697       C  0.71988765  0.64063084  0.86991111    -0.22400
C3698       C  0.73213704  0.64685000  0.89098695     0.09600
C3699       C  0.74752756  0.66697732  0.89100492     0.10000
C3700       C  0.75127552  0.67976382  0.86962790    -0.17300
C3701       C  0.74002677  0.67296083  0.84813929    -0.27700
C3702       C  0.72340815  0.65358454  0.84845662     0.18300
C3703       C  0.72943382  0.63154239  0.91264814     0.12300
C3704       C  0.76044530  0.67469700  0.91346302    -0.12000
H3705       H  0.76382925  0.69465994  0.86953766     0.12600
C3706       C  0.70881158  0.64686847  0.82663587    -0.22900
H3707       H  0.70773255  0.62541066  0.87023603     0.08200
C3708       C  0.71233719  0.63678546  0.93062557     0.04600
C3709       C  0.71179956  0.62278705  0.95165723    -0.20100
C3710       C  0.72718229  0.60293124  0.95457600    -0.12400
C3711       C  0.74363049  0.59709068  0.93599344     0.13300
C3712       C  0.74477830  0.61173382  0.91542477    -0.22800
C3713       C  0.69441080  0.65683788  0.92735272    -0.05900
H3714       H  0.69896949  0.62706699  0.96570793     0.14800
C3715       C  0.76047757  0.57592297  0.93794820    -0.16100
H3716       H  0.75775099  0.60778141  0.90140300     0.09100
H3717       H  0.69537017  0.63270797  0.83086694     0.07000
H3718       H  0.72063026  0.63973276  0.81224757     0.08200
H3719       H  0.69889983  0.66287070  0.81992180     0.07200
H3720       H  0.77228167  0.65995759  0.91988425     0.02100
H3721       H  0.74720903  0.67918555  0.92770508     0.02600
H3722       H  0.77175483  0.69083747  0.91027405     0.06100
H3723       H  0.68214192  0.65842863  0.94304142     0.05100
H3724       H  0.68332312  0.65328440  0.91117046    -0.00700
H3725       H  0.70386341  0.67423188  0.92501723     0.00800
H3726       H  0.75003919  0.55894089  0.93834262     0.04500
H3727       H  0.77143109  0.57742350  0.95453650     0.06400
H3728       H  0.77297681  0.57492628  0.92238752     0.07300
C3729       C  0.85345040  0.72660186  0.10880772    -0.22400
C3730       C  0.86619695  0.74829064  0.11036661     0.09600
C3731       C  0.86583344  0.76161686  0.13188485     0.10000
C3732       C  0.85235604  0.75307518  0.15136701    -0.17300
C3733       C  0.83917179  0.73170433  0.14964330    -0.27700
C3734       C  0.83986161  0.71811918  0.12831404     0.18300
C3735       C  0.87817188  0.75756069  0.08858453     0.12300
C3736       C  0.87936266  0.78493331  0.13417052    -0.12000
H3737       H  0.85175625  0.76330897  0.16793483     0.12600
C3738       C  0.82615535  0.69495308  0.12611806    -0.22900
H3739       H  0.85380404  0.71657181  0.09212677     0.08200
C3740       C  0.90198934  0.75121480  0.08265707     0.04600
C3741       C  0.91190703  0.75956160  0.06101145    -0.20100
C3742       C  0.89822747  0.77340333  0.04488253    -0.12400
C3743       C  0.87434387  0.77977919  0.05098463     0.13300
C3744       C  0.86475848  0.77204855  0.07298094    -0.22800
C3745       C  0.91665956  0.73523000  0.09887505    -0.05900
H3746       H  0.93011496  0.75445039  0.05621145     0.14800
C3747       C  0.85885439  0.79467212  0.03450030    -0.16100
H3748       H  0.84643795  0.77674054  0.07779558     0.09100
H3749       H  0.83236010  0.68202276  0.14000948     0.07000
H3750       H  0.82864110  0.68657448  0.10817711     0.08200
H3751       H  0.80675478  0.69858080  0.12871396     0.07200
H3752       H  0.87267325  0.79804372  0.12068660     0.02100
H3753       H  0.89883051  0.78174506  0.13110754     0.02600
H3754       H  0.87710506  0.79299875  0.15228860     0.06100
H3755       H  0.93489578  0.73184688  0.09141284     0.05100
H3756       H  0.90750703  0.71763845  0.10110818    -0.00700
H3757       H  0.91872382  0.74379478  0.11674170     0.00800
H3758       H  0.84137727  0.79937993  0.04299110     0.04500
H3759       H  0.85483908  0.78437216  0.01796296     0.06400
H3760       H  0.86822408  0.81165612  0.02979371     0.07300
C3761       C  0.86383409  0.77395074  0.92759354    -0.22400
C3762       C  0.87243178  0.75353552  0.91559500     0.09600
C3763       C  0.89307261  0.74150901  0.92407407     0.10000
C3764       C  0.90439654  0.74988136  0.94490892    -0.17300
C3765       C  0.89552638  0.77003863  0.95717597    -0.27700
C3766       C  0.87532513  0.78249193  0.94827183     0.18300
C3767       C  0.86023942  0.74593795  0.89339349     0.12300
C3768       C  0.90303337  0.71990699  0.91114018    -0.12000
H3769       H  0.92011304  0.74059514  0.95177268     0.12600
C3770       C  0.86654616  0.80525129  0.95999583    -0.22900
H3771       H  0.84830206  0.78338267  0.92051551     0.08200
C3772       C  0.83926708  0.73174615  0.89395182     0.04600
C3773       C  0.82748619  0.72646484  0.87233763    -0.20100
C3774       C  0.83634080  0.73504146  0.85029446    -0.12400
C3775       C  0.85762279  0.74913024  0.84986039     0.13300
C3776       C  0.86936893  0.75414238  0.87146346    -0.22800
C3777       C  0.82935481  0.72233763  0.91733892    -0.05900
H3778       H  0.81117015  0.71580424  0.87263638     0.14800
C3779       C  0.86779695  0.76056316  0.82743022    -0.16100
H3780       H  0.88539148  0.76525883  0.87130823     0.09100
H3781       H  0.86091441  0.80152955  0.97873549     0.07000
H3782       H  0.85093098  0.81306715  0.95030500     0.08200
H3783       H  0.88120981  0.81878951  0.96006555     0.07200
H3784       H  0.90826851  0.72498533  0.89255535     0.02100
H3785       H  0.88919183  0.70556084  0.91040885     0.02600
H3786       H  0.91917699  0.71253872  0.92030393     0.06100
H3787       H  0.81306010  0.71117582  0.91453481     0.05100
H3788       H  0.82443580  0.73758499  0.92921785    -0.00700
H3789       H  0.84311831  0.71107053  0.92641798     0.00800
H3790       H  0.86936009  0.78028701  0.83008767     0.04500
H3791       H  0.85646671  0.75794353  0.81142019     0.06400
H3792       H  0.88597891  0.75314731  0.82372737     0.07300
C3793       C  0.49259607  0.95321024  0.67288462    -0.22400
C3794       C  0.50406940  0.97193825  0.68498396     0.09600
C3795       C  0.49047186  0.99108649  0.69443474     0.10000
C3796       C  0.46543221  0.99098604  0.69162997    -0.17300
C3797       C  0.45361896  0.97200239  0.67983242    -0.27700
C3798       C  0.46752787  0.95281126  0.67029708     0.18300
C3799       C  0.53045870  0.97103905  0.68742387     0.12300
C3800       C  0.50237122  0.01140007  0.70774425    -0.12000
H3801       H  0.45501621  0.00563009  0.69917820     0.12600
C3802       C  0.45645648  0.93203069  0.65698675    -0.22900
H3803       H  0.50340457  0.93869635  0.66561437     0.08200
C3804       C  0.54155803  0.95742657  0.70570317     0.04600
C3805       C  0.56674067  0.95705193  0.70719583    -0.20100
C3806       C  0.58091346  0.96989392  0.69070017    -0.12400
C3807       C  0.56968944  0.98280506  0.67185231     0.13300
C3808       C  0.54452845  0.98334989  0.67058429    -0.22800
C3809       C  0.52678069  0.94340767  0.72358331    -0.05900
H3810       H  0.57539241  0.94699801  0.72147969     0.14800
C3811       C  0.58407794  0.99513972  0.65243786    -0.16100
H3812       H  0.53572609  0.99327361  0.65629905     0.09100
H3813       H  0.44519922  0.92116835  0.66937490     0.07000
H3814       H  0.47033266  0.91978132  0.64945211     0.08200
H3815       H  0.44548651  0.93885527  0.64179378     0.07200
H3816       H  0.51524943  0.02076961  0.69569256     0.02100
H3817       H  0.51220721  0.00420565  0.72354729     0.02600
H3818       H  0.48904865  0.02480049  0.71425196     0.06100
H3819       H  0.53828169  0.93397875  0.73690744     0.05100
H3820       H  0.51589202  0.92970362  0.71405833    -0.00700
H3821       H  0.51456599  0.95575113  0.73344529     0.00800
H3822       H  0.57231223  0.00259471  0.63813365     0.04500
H3823       H  0.59655191  0.98204875  0.64394311     0.06400
H3824       H  0.59447736  0.01029914  0.66006696     0.07300
C3825       C  0.34409659  0.04589360  0.68258725    -0.22400
C3826       C  0.35780850  0.06426139  0.69281397     0.09600
C3827       C  0.38240950  0.06060844  0.69738247     0.10000
C3828       C  0.39267451  0.03819755  0.69235032    -0.17300
C3829       C  0.37888774  0.01915252  0.68299184    -0.27700
C3830       C  0.35425533  0.02333536  0.67751852     0.18300
C3831       C  0.34574696  0.08672134  0.70005492     0.12300
C3832       C  0.39772350  0.08027940  0.70792107    -0.12000
H3833       H  0.41151251  0.03543801  0.69648262     0.12600
C3834       C  0.33846114  0.00452083  0.66614853    -0.22900
H3835       H  0.32520105  0.04913836  0.67901976     0.08200
C3836       C  0.34314465  0.10621850  0.68407076     0.04600
C3837       C  0.33240653  0.12748685  0.69230042    -0.20100
C3838       C  0.32381232  0.12930431  0.71593120    -0.12400
C3839       C  0.32612980  0.10959037  0.73184638     0.13300
C3840       C  0.33717348  0.08852249  0.72365550    -0.22800
C3841       C  0.35152105  0.10444869  0.65839456    -0.05900
H3842       H  0.33027465  0.14259849  0.68015527     0.14800
C3843       C  0.31765007  0.11024531  0.75761359    -0.16100
H3844       H  0.33929395  0.07341016  0.73581324     0.09100
H3845       H  0.32044064  0.01180365  0.66150263     0.07000
H3846       H  0.33555240  0.98937076  0.67880294     0.08200
H3847       H  0.34688601  0.99791817  0.64929951     0.07200
H3848       H  0.39060180  0.08551750  0.72581079     0.02100
H3849       H  0.39752910  0.09619820  0.69586912     0.02600
H3850       H  0.41670779  0.07448089  0.71021428     0.06100
H3851       H  0.34797801  0.12131404  0.64828238     0.05100
H3852       H  0.34189373  0.08958329  0.64925443    -0.00700
H3853       H  0.37115281  0.10083865  0.65785445     0.00800
H3854       H  0.30358733  0.09635615  0.76041787     0.04500
H3855       H  0.31011021  0.12788329  0.76297108     0.06400
H3856       H  0.33299946  0.10631394  0.76974432     0.07300
C3857       C  0.36914076  0.88858547  0.67108325    -0.22400
C3858       C  0.35412640  0.88588783  0.69113145     0.09600
C3859       C  0.34930228  0.90582640  0.70603978     0.10000
C3860       C  0.36009108  0.92799167  0.70080875    -0.17300
C3861       C  0.37584020  0.93051379  0.68125342    -0.27700
C3862       C  0.37991946  0.91073766  0.66579574     0.18300
C3863       C  0.34403110  0.86191435  0.69658946     0.12300
C3864       C  0.33303164  0.90362788  0.72761994    -0.12000
H3865       H  0.35702776  0.94316222  0.71263471     0.12600
C3866       C  0.39502693  0.91243943  0.64334633    -0.22900
H3867       H  0.37254493  0.87326179  0.65954507     0.08200
C3868       C  0.32409695  0.85272400  0.68395153     0.04600
C3869       C  0.31416643  0.83063312  0.69102582    -0.20100
C3870       C  0.32388864  0.81754728  0.71029420    -0.12400
C3871       C  0.34421852  0.82655649  0.72259087     0.13300
C3872       C  0.35410588  0.84861832  0.71546057    -0.22800
C3873       C  0.31297932  0.86650517  0.66345694    -0.05900
H3874       H  0.29860884  0.82362571  0.68164719     0.14800
C3875       C  0.35479656  0.81365069  0.74397910    -0.16100
H3876       H  0.36944006  0.85587834  0.72500838     0.09100
H3877       H  0.38420914  0.90660665  0.62765721     0.07000
H3878       H  0.41091924  0.90045387  0.64501533     0.08200
H3879       H  0.40125773  0.93095119  0.63950980     0.07200
H3880       H  0.34068957  0.89056329  0.74061975     0.02100
H3881       H  0.31497918  0.89737735  0.72188316     0.02600
H3882       H  0.33082310  0.92108687  0.73702454     0.06100
H3883       H  0.29721666  0.85694639  0.65583330     0.05100
H3884       H  0.32640017  0.86894358  0.64887017    -0.00700
H3885       H  0.30687875  0.88440327  0.66984568     0.00800
H3886       H  0.36205240  0.79591848  0.73843258     0.04500
H3887       H  0.34075456  0.81104863  0.75796343     0.06400
H3888       H  0.36978601  0.82396165  0.75215048     0.07300
C3889       C  0.19595088  0.99586169  0.97112163    -0.22400
C3890       C  0.20677012  0.97809681  0.98524263     0.09600
C3891       C  0.21719129  0.95776409  0.97441517     0.10000
C3892       C  0.21795189  0.95640828  0.94937713    -0.17300
C3893       C  0.20867866  0.97500153  0.93494297    -0.27700
C3894       C  0.19665243  0.99458594  0.94599907     0.18300
C3895       C  0.20879895  0.98208314  0.01122522     0.12300
C3896       C  0.22820541  0.93792420  0.98926149    -0.12000
H3897       H  0.22681962  0.94117920  0.94114434     0.12600
C3898       C  0.18425344  0.01402295  0.93171868    -0.22900
H3899       H  0.18763949  0.01118051  0.97985435     0.08200
C3900       C  0.22733341  0.99655610  0.02055503     0.04600
C3901       C  0.22958450  0.99884058  0.04542830    -0.20100
C3902       C  0.21399525  0.98664767  0.06107843    -0.12400
C3903       C  0.19481785  0.97289673  0.05164416     0.13300
C3904       C  0.19257220  0.97066984  0.02670277    -0.22800
C3905       C  0.24527512  0.00880547  0.00430530    -0.05900
H3906       H  0.24436260  0.00922669  0.05270116     0.14800
C3907       C  0.17618931  0.96080387  0.06717309    -0.16100
H3908       H  0.17822332  0.95981148  0.01926016     0.09100
H3909       H  0.19764160  0.02516472  0.92204437     0.07000
H3910       H  0.17380349  0.02631887  0.94349301     0.08200
H3911       H  0.17154154  0.00581996  0.91874735     0.07200
H3912       H  0.21427377  0.92983033  0.00106622     0.02100
H3913       H  0.24292382  0.94525498  0.00052502     0.02600
H3914       H  0.23581916  0.92342439  0.97783631     0.06100
H3915       H  0.25887155  0.01907043  0.01466795     0.05100
H3916       H  0.23584711  0.02156145  0.99219149    -0.00700
H3917       H  0.25490041  0.99516981  0.99334898     0.00800
H3918       H  0.15801007  0.96715976  0.06186874     0.04500
H3919       H  0.17837179  0.96484033  0.08652489     0.06400
H3920       H  0.17712013  0.94104495  0.06455191     0.07300
C3921       C  0.24091058  0.03980109  0.82437156    -0.22400
C3922       C  0.24246749  0.06052032  0.83846610     0.09600
C3923       C  0.23743774  0.05942649  0.86317571     0.10000
C3924       C  0.23191868  0.03729275  0.87359796    -0.17300
C3925       C  0.23046319  0.01612749  0.85982595    -0.27700
C3926       C  0.23476809  0.01753678  0.83461312     0.18300
C3927       C  0.24894422  0.08352402  0.82714953     0.12300
C3928       C  0.23783317  0.08170197  0.87857422    -0.12000
H3929       H  0.22877615  0.03671822  0.89278112     0.12600
C3930       C  0.23265730  0.99614644  0.81811617    -0.22900
H3931       H  0.24445092  0.04115323  0.80525211     0.08200
C3932       C  0.27316208  0.09009016  0.82333422     0.04600
C3933       C  0.27836742  0.11299695  0.81415494    -0.20100
C3934       C  0.25979758  0.12920252  0.80892060    -0.12400
C3935       C  0.23556371  0.12264085  0.81308382     0.13300
C3936       C  0.23045886  0.09975036  0.82197311    -0.22800
C3937       C  0.29335370  0.07291494  0.82891126    -0.05900
H3938       H  0.29683529  0.11801969  0.81040466     0.14800
C3939       C  0.21464211  0.13931665  0.80843963    -0.16100
H3940       H  0.21192402  0.09461800  0.82527540     0.09100
H3941       H  0.24663544  0.98259787  0.82254823     0.07000
H3942       H  0.23529925  0.00123315  0.79898335     0.08200
H3943       H  0.21445200  0.98810859  0.81974129     0.07200
H3944       H  0.22396031  0.09458275  0.87221532     0.02100
H3945       H  0.25580328  0.09032066  0.87752562     0.02600
H3946       H  0.23397088  0.07756683  0.89772294     0.06100
H3947       H  0.31120803  0.08096256  0.82496837     0.05100
H3948       H  0.29143751  0.05642365  0.81788079    -0.00700
H3949       H  0.29282690  0.06795458  0.84823719     0.00800
H3950       H  0.20283068  0.13148657  0.79443097     0.04500
H3951       H  0.22026030  0.15743303  0.80248646     0.06400
H3952       H  0.20405074  0.14160145  0.82522001     0.07300
C3953       C  0.25329167  0.89160950  0.86128335    -0.22400
C3954       C  0.24146395  0.88561908  0.83999315     0.09600
C3955       C  0.22349485  0.90074256  0.83050749     0.10000
C3956       C  0.21786650  0.92202821  0.84256218    -0.17300
C3957       C  0.22965332  0.92808143  0.86391156    -0.27700
C3958       C  0.24757462  0.91279853  0.87346697     0.18300
C3959       C  0.24796077  0.86316611  0.82801146     0.12300
C3960       C  0.21049654  0.89444695  0.80763895    -0.12000
H3961       H  0.20427868  0.93401495  0.83533885     0.12600
C3962       C  0.26125408  0.91913306  0.89593125    -0.22900
H3963       H  0.26708731  0.87970615  0.86824909     0.08200
C3964       C  0.26686634  0.86226866  0.81114633     0.04600
C3965       C  0.27189956  0.84049110  0.79973977    -0.20100
C3966       C  0.25818894  0.82000913  0.80477536    -0.12400
C3967       C  0.23889163  0.82106451  0.82129529     0.13300
C3968       C  0.23429680  0.84268934  0.83308999    -0.22800
C3969       C  0.28131403  0.88431978  0.80491733    -0.05900
H3970       H  0.28635122  0.83945643  0.78666083     0.14800
C3971       C  0.22217945  0.80021125  0.82607287    -0.16100
H3972       H  0.21953255  0.84381462  0.84581174     0.09100
H3973       H  0.27552649  0.90573710  0.89996214     0.07000
H3974       H  0.24881796  0.91956782  0.91149718     0.08200
H3975       H  0.26995041  0.93696482  0.89375608     0.07200
H3976       H  0.20100219  0.87704789  0.80989073     0.02100
H3977       H  0.22357917  0.89290823  0.79262818     0.02600
H3978       H  0.19697526  0.90831662  0.80273927     0.06100
H3979       H  0.29532424  0.88039464  0.79120960     0.05100
H3980       H  0.29037045  0.89125834  0.82124624    -0.00700
H3981       H  0.26926248  0.89845849  0.79759284     0.00800
H3982       H  0.22298619  0.79517973  0.84536972     0.04500
H3983       H  0.22651302  0.78406060  0.81528078     0.06400
H3984       H  0.20344735  0.80557210  0.82162949     0.07300
C3985       C  0.50060705  0.96108191  0.32906579    -0.22400
C3986       C  0.51520435  0.97419177  0.31329861     0.09600
C3987       C  0.50455388  0.98981590  0.29637117     0.10000
C3988       C  0.47935617  0.99168939  0.29536764    -0.17300
C3989       C  0.46461384  0.97797486  0.31065557    -0.27700
C3990       C  0.47543377  0.96268776  0.32793897     0.18300
C3991       C  0.54159569  0.97062037  0.31438241     0.12300
C3992       C  0.51980548  0.00434282  0.27932119    -0.12000
H3993       H  0.47111286  0.00345804  0.28219233     0.12600
C3994       C  0.46065290  0.94839699  0.34560696    -0.22900
H3995       H  0.50901038  0.94928569  0.34211762     0.08200
C3996       C  0.55610906  0.98384142  0.33033204     0.04600
C3997       C  0.58106193  0.98001305  0.33038039    -0.20100
C3998       C  0.59182250  0.96309654  0.31501079    -0.12400
C3999       C  0.57714699  0.94956855  0.29928212     0.13300
C4000       C  0.55217587  0.95350243  0.29922811    -0.22800
C4001       C  0.54528695  0.00219012  0.34703165    -0.05900
H4002       H  0.59230796  0.99048994  0.34231189     0.14800
C4003       C  0.58770318  0.93181405  0.28176550    -0.16100
H4004       H  0.54081377  0.94341279  0.28707762     0.09100
H4005       H  0.47213615  0.93899845  0.35897171     0.07000
H4006       H  0.45017063  0.93448437  0.33601510     0.08200
H4007       H  0.44828827  0.96053854  0.35553765     0.07200
H4008       H  0.53085556  0.99214005  0.26802613     0.02100
H4009       H  0.53188619  0.01636011  0.28964723     0.02600
H4010       H  0.50864287  0.01565477  0.26722073     0.06100
H4011       H  0.55920669  0.01104488  0.35823101     0.05100
H4012       H  0.53218296  0.99333858  0.35923333    -0.00700
H4013       H  0.53591321  0.01629520  0.33645783     0.00800
H4014       H  0.59635664  0.91682508  0.29168295     0.04500
H4015       H  0.60118382  0.94088625  0.27013596     0.06400
H4016       H  0.57371341  0.92393259  0.26994585     0.07300
C4017       C  0.67239187  0.04696150  0.29198228    -0.22400
C4018       C  0.69616272  0.04806472  0.30005581     0.09600
C4019       C  0.70606256  0.02839446  0.31263172     0.10000
C4020       C  0.69226390  0.00745728  0.31572230    -0.17300
C4021       C  0.66844070  0.00604289  0.30733365    -0.27700
C4022       C  0.65822894  0.02641718  0.29568442     0.18300
C4023       C  0.71004531  0.07027503  0.29518638     0.12300
C4024       C  0.73092516  0.02972277  0.32325243    -0.12000
H4025       H  0.70002515  0.99224250  0.32510400     0.12600
C4026       C  0.63269380  0.02678405  0.28653191    -0.22900
H4027       H  0.66489866  0.06238330  0.28268220     0.08200
C4028       C  0.72503102  0.07237383  0.27479800     0.04600
C4029       C  0.73643310  0.09438938  0.27003427    -0.20100
C4030       C  0.73285550  0.11446730  0.28493578    -0.12400
C4031       C  0.71825571  0.11212460  0.30568415     0.13300
C4032       C  0.70683574  0.09010159  0.31036209    -0.22800
C4033       C  0.72839026  0.05165218  0.25768755    -0.05900
H4034       H  0.74770529  0.09614771  0.25420548     0.14800
C4035       C  0.71487956  0.13207824  0.32368453    -0.16100
H4036       H  0.69533182  0.08834904  0.32602243     0.09100
H4037       H  0.62847470  0.04373241  0.27682741     0.07000
H4038       H  0.61990706  0.02549633  0.30181806     0.08200
H4039       H  0.62979691  0.01167780  0.27385973     0.07200
H4040       H  0.73174642  0.04476151  0.33631381     0.02100
H4041       H  0.74445615  0.03281450  0.30892588     0.02600
H4042       H  0.73578759  0.01287984  0.33283879     0.06100
H4043       H  0.74044782  0.05647017  0.24249092     0.05100
H4044       H  0.71072591  0.04626259  0.25016169    -0.00700
H4045       H  0.73643580  0.03607631  0.26719742     0.00800
H4046       H  0.69566147  0.13750473  0.32417406     0.04500
H4047       H  0.72592136  0.14816358  0.31977392     0.06400
H4048       H  0.72019130  0.12558502  0.34179711     0.07300
C4049       C  0.70266574  0.89106738  0.31397124    -0.22400
C4050       C  0.69164508  0.87300648  0.30041325     0.09600
C4051       C  0.66812448  0.87654923  0.29166427     0.10000
C4052       C  0.65644173  0.89850492  0.29602529    -0.17300
C4053       C  0.66779420  0.91715753  0.30872691    -0.27700
C4054       C  0.69114706  0.91314833  0.31819445     0.18300
C4055       C  0.70547344  0.85087064  0.29497254     0.12300
C4056       C  0.65561759  0.85742744  0.27719346    -0.12000
H4057       H  0.63859200  0.90135572  0.28878916     0.12600
C4058       C  0.70396664  0.93169593  0.33314166    -0.22900
H4059       H  0.72061495  0.88796531  0.32091417     0.08200
C4060       C  0.72409009  0.85090048  0.27770648     0.04600
C4061       C  0.73687685  0.82961712  0.27324790    -0.20100
C4062       C  0.73152084  0.80824920  0.28564067    -0.12400
C4063       C  0.71316716  0.80843576  0.30341010     0.13300
C4064       C  0.70020699  0.82970374  0.30757698    -0.22800
C4065       C  0.73005194  0.87323488  0.26354284    -0.05900
H4066       H  0.75069149  0.82949964  0.25946685     0.14800
C4067       C  0.70724265  0.78699308  0.31896092    -0.16100
H4068       H  0.68612681  0.82990660  0.32108791     0.09100
H4069       H  0.70849463  0.94758072  0.32197667     0.07000
H4070       H  0.72112058  0.92463217  0.34055867     0.08200
H4071       H  0.69242454  0.93717703  0.34848916     0.07200
H4072       H  0.65350465  0.84089083  0.28817390     0.02100
H4073       H  0.66637799  0.85319320  0.26091021     0.02600
H4074       H  0.63744059  0.86329714  0.27134174     0.06100
H4075       H  0.74467062  0.86995971  0.25030901     0.05100
H4076       H  0.73608669  0.88768217  0.27584766    -0.00700
H4077       H  0.71388966  0.87942339  0.25359165     0.00800
H4078       H  0.70781179  0.79233489  0.33816849     0.04500
H4079       H  0.72013244  0.77196025  0.31693142     0.06400
H4080       H  0.68885777  0.78050396  0.31471344     0.07300
C4081       C  0.85279610  0.97942881  0.97793031    -0.22400
C4082       C  0.87096298  0.96501267  0.98767030     0.09600
C4083       C  0.88695281  0.95265570  0.97236400     0.10000
C4084       C  0.88439257  0.95513977  0.94736729    -0.17300
C4085       C  0.86623862  0.96975659  0.93758375    -0.27700
C4086       C  0.85010143  0.98187413  0.95308045     0.18300
C4087       C  0.87152348  0.96225967  0.01403059     0.12300
C4088       C  0.90649460  0.93685521  0.98244992    -0.12000
H4089       H  0.89638457  0.94546814  0.93541457     0.12600
C4090       C  0.82917536  0.99631620  0.94363596    -0.22900
H4091       H  0.84032356  0.98841663  0.98993993     0.08200
C4092       C  0.88028694  0.98069160  0.02890254     0.04600
C4093       C  0.87627411  0.97940028  0.05372793    -0.20100
C4094       C  0.86343289  0.96020507  0.06406428    -0.12400
C4095       C  0.85577038  0.94098312  0.04902669     0.13300
C4096       C  0.86000059  0.94237910  0.02420690    -0.22800
C4097       C  0.89341427  0.00196064  0.01846041    -0.05900
H4098       H  0.88263208  0.99389149  0.06503523     0.14800
C4099       C  0.84205638  0.91949636  0.05836401    -0.16100
H4100       H  0.85327562  0.92841025  0.01243821     0.09100
H4101       H  0.83585669  0.01225271  0.93373536     0.07000
H4102       H  0.81740345  0.00291711  0.95836407     0.08200
H4103       H  0.81803380  0.98503417  0.93155759     0.07200
H4104       H  0.89840925  0.92211399  0.99322339     0.02100
H4105       H  0.91849009  0.94766901  0.99412384     0.02600
H4106       H  0.91759046  0.92866133  0.96800260     0.06100
H4107       H  0.89948309  0.01457266  0.03265140     0.05100
H4108       H  0.88142599  0.01198256  0.00604866    -0.00700
H4109       H  0.90949964  0.99565337  0.00842514     0.00800
H4110       H  0.82521210  0.92546451  0.06730243     0.04500
H4111       H  0.85338720  0.90915798  0.07113137     0.06400
H4112       H  0.83691878  0.90699473  0.04370439     0.07300
C4113       C  0.83760112  0.03589704  0.16927462    -0.22400
C4114       C  0.82513978  0.05277568  0.15532894     0.09600
C4115       C  0.82180285  0.04845577  0.13057966     0.10000
C4116       C  0.83052119  0.02700845  0.12048250    -0.17300
C4117       C  0.84219587  0.00960074  0.13462124    -0.27700
C4118       C  0.84631705  0.01444950  0.15928813     0.18300
C4119       C  0.81593629  0.07486104  0.16715573     0.12300
C4120       C  0.80818400  0.06597703  0.11504852    -0.12000
H4121       H  0.82718639  0.02333577  0.10166125     0.12600
C4122       C  0.86021231  0.99782066  0.17560238    -0.22900
H4123       H  0.84059473  0.03954228  0.18817157     0.08200
C4124       C  0.79609898  0.07417951  0.18306176     0.04600
C4125       C  0.78888684  0.09530642  0.19485194    -0.20100
C4126       C  0.80101111  0.11705937  0.19106024    -0.12400
C4127       C  0.82092242  0.11774035  0.17512669     0.13300
C4128       C  0.82801341  0.09662848  0.16329233    -0.22800
C4129       C  0.78254032  0.05118626  0.18760834    -0.05900
H4130       H  0.77389220  0.09481387  0.20733088     0.14800
C4131       C  0.83575669  0.14004485  0.17090496    -0.16100
H4132       H  0.84348792  0.09700695  0.15140215     0.09100
H4133       H  0.84792783  0.99019906  0.18939646     0.07000
H4134       H  0.87463470  0.00807404  0.18479019     0.08200
H4135       H  0.86920614  0.98295207  0.16590846     0.07200
H4136       H  0.81758247  0.08355471  0.11471368     0.02100
H4137       H  0.78973957  0.06848061  0.12232223     0.02600
H4138       H  0.80664178  0.05951784  0.09624092     0.06100
H4139       H  0.76713732  0.05398990  0.20003736     0.05100
H4140       H  0.79464062  0.03760907  0.19582386    -0.00700
H4141       H  0.77542604  0.04410822  0.17039364     0.00800
H4142       H  0.85469761  0.13652051  0.17617240     0.04500
H4143       H  0.82936770  0.15575710  0.18126916     0.06400
H4144       H  0.83531590  0.14486933  0.15154460     0.07300
C4145       C  0.80419582  0.89968670  0.15982474    -0.22400
C4146       C  0.81831776  0.87891197  0.15879965     0.09600
C4147       C  0.84087987  0.87936454  0.14716893     0.10000
C4148       C  0.84883765  0.90091872  0.13678645    -0.17300
C4149       C  0.83487730  0.92193524  0.13819091    -0.27700
C4150       C  0.81222462  0.92130373  0.14983576     0.18300
C4151       C  0.80908353  0.85701352  0.17044410     0.12300
C4152       C  0.85658590  0.85726578  0.14596713    -0.12000
H4153       H  0.86605158  0.90142356  0.12761299     0.12600
C4154       C  0.79594306  0.94297751  0.15104724    -0.22900
H4155       H  0.78677177  0.89891807  0.16858083     0.08200
C4156       C  0.80817510  0.85502954  0.19561688     0.04600
C4157       C  0.79952459  0.83383242  0.20588803    -0.20100
C4158       C  0.79255468  0.81406341  0.19166585    -0.12400
C4159       C  0.79244849  0.81667560  0.16625611     0.13300
C4160       C  0.80064772  0.83824416  0.15606632    -0.22800
C4161       C  0.81714308  0.87489742  0.21168965    -0.05900
H4162       H  0.79915419  0.83248777  0.22531021     0.14800
C4163       C  0.78426478  0.79702499  0.14954373    -0.16100
H4164       H  0.80091219  0.84040198  0.13670348     0.09100
H4165       H  0.77834098  0.93861224  0.15945132     0.07000
H4166       H  0.79240155  0.94986532  0.13265147     0.08200
H4167       H  0.80438246  0.95724689  0.16207597     0.07200
H4168       H  0.84727689  0.84282446  0.13589301     0.02100
H4169       H  0.86062184  0.85079799  0.16441665     0.02600
H4170       H  0.87392231  0.86097931  0.13673632     0.06100
H4171       H  0.81590433  0.86994270  0.23099440     0.05100
H4172       H  0.80626776  0.89140167  0.20895595    -0.00700
H4173       H  0.83628482  0.87879193  0.20750552     0.00800
H4174       H  0.76523425  0.79235649  0.15342384     0.04500
H4175       H  0.79593094  0.78094770  0.15161843     0.06400
H4176       H  0.78525141  0.80265260  0.13041034     0.07300
C4177       C  0.71208929  0.48668585  0.98112501    -0.22400
C4178       C  0.72554927  0.47456104  0.99857743     0.09600
C4179       C  0.73861213  0.48777296  0.01574746     0.10000
C4180       C  0.73776498  0.51299369  0.01517467    -0.17300
C4181       C  0.72442803  0.52532348  0.99758573    -0.27700
C4182       C  0.71133770  0.51191069  0.98034489     0.18300
C4183       C  0.72540428  0.44795298  0.99873646     0.12300
C4184       C  0.75348945  0.47521309  0.03457824    -0.12000
H4185       H  0.74784665  0.52314573  0.02835456     0.12600
C4186       C  0.69584000  0.52388160  0.96160490    -0.22900
H4187       H  0.70201444  0.47628682  0.96812934     0.08200
C4188       C  0.70837068  0.43497044  0.01233869     0.04600
C4189       C  0.70940135  0.40977190  0.01263663    -0.20100
C4190       C  0.72634411  0.39728636  0.99871340    -0.12400
C4191       C  0.74290425  0.41034028  0.98438927     0.13300
C4192       C  0.74241872  0.43558026  0.98486687    -0.22800
C4193       C  0.68885038  0.44773844  0.02612423    -0.05900
H4194       H  0.69655252  0.39972869  0.02333878     0.14800
C4195       C  0.76146341  0.39785121  0.96904460    -0.16100
H4196       H  0.75526894  0.44576097  0.97429975     0.09100
H4197       H  0.68550445  0.51055248  0.95097723     0.07000
H4198       H  0.70720811  0.53413940  0.94880808     0.08200
H4199       H  0.68274037  0.53612898  0.97040441     0.07200
H4200       H  0.76748393  0.46401079  0.02576481     0.02100
H4201       H  0.74182802  0.46350777  0.04578666     0.02600
H4202       H  0.76262324  0.48820585  0.04662248     0.06100
H4203       H  0.67688554  0.43489200  0.03566203     0.05100
H4204       H  0.67765852  0.45844941  0.01352403    -0.00700
H4205       H  0.69691367  0.45993320  0.03963926     0.00800
H4206       H  0.75247772  0.38733748  0.95472200     0.04500
H4207       H  0.77256630  0.38567485  0.98032325     0.06400
H4208       H  0.77369577  0.41087877  0.96010758     0.07300
C4209       C  0.71931875  0.31608500  0.08754412    -0.22400
C4210       C  0.73776753  0.29906417  0.08983159     0.09600
C4211       C  0.75204861  0.29317004  0.06969455     0.10000
C4212       C  0.74772983  0.30474723  0.04772193    -0.17300
C4213       C  0.72975755  0.32235958  0.04552797    -0.27700
C4214       C  0.71516678  0.32793345  0.06564042     0.18300
C4215       C  0.74167066  0.28745041  0.11345583     0.12300
C4216       C  0.77216385  0.27508175  0.07151384    -0.12000
H4217       H  0.75888337  0.30048426  0.03230277     0.12600
C4218       C  0.69478180  0.34573919  0.06398917    -0.22900
H4219       H  0.70821864  0.32016853  0.10304755     0.08200
C4220       C  0.75367241  0.29938623  0.13227224     0.04600
C4221       C  0.75768332  0.28724026  0.15403599    -0.20100
C4222       C  0.74972417  0.26350033  0.15750462    -0.12400
C4223       C  0.73680799  0.25193784  0.13879965     0.13300
C4224       C  0.73308645  0.26408978  0.11701273    -0.22800
C4225       C  0.76245855  0.32482189  0.12926586    -0.05900
H4226       H  0.76751678  0.29618811  0.16823701     0.14800
C4227       C  0.72622812  0.22712009  0.14172381    -0.16100
H4228       H  0.72349362  0.25529959  0.10254495     0.09100
H4229       H  0.68445294  0.34676600  0.08106485     0.07000
H4230       H  0.68219229  0.34026994  0.04953850     0.08200
H4231       H  0.70185614  0.36397080  0.06012328     0.07200
H4232       H  0.76484131  0.25727382  0.07673704     0.02100
H4233       H  0.78535121  0.28103022  0.08522437     0.02600
H4234       H  0.78183477  0.27294449  0.05416212     0.06100
H4235       H  0.77178408  0.33137236  0.14562204     0.05100
H4236       H  0.74699023  0.33695175  0.12574105    -0.00700
H4237       H  0.77525190  0.32582392  0.11395672     0.00800
H4238       H  0.71453978  0.22223820  0.12632481     0.04500
H4239       H  0.71504022  0.22635095  0.15826370     0.06400
H4240       H  0.74074885  0.21346001  0.14266954     0.07300
C4241       C  0.74984880  0.29522018  0.87311099    -0.22400
C4242       C  0.73597646  0.28278751  0.88997150     0.09600
C4243       C  0.72613406  0.26024804  0.88399156     0.10000
C4244       C  0.73095210  0.25034905  0.86123303    -0.17300
C4245       C  0.74515242  0.26267796  0.84422762    -0.27700
C4246       C  0.75467848  0.28547461  0.85041046     0.18300
C4247       C  0.73250147  0.29389352  0.91386266     0.12300
C4248       C  0.71058487  0.24676275  0.90161319    -0.12000
H4249       H  0.72365922  0.23286982  0.85673037     0.12600
C4250       C  0.77103219  0.29918232  0.83381718    -0.22900
H4251       H  0.75732886  0.31252718  0.87799199     0.08200
C4252       C  0.74876748  0.28959804  0.93283397     0.04600
C4253       C  0.74591229  0.30207927  0.95454898    -0.20100
C4254       C  0.72780725  0.31946778  0.95729210    -0.12400
C4255       C  0.71153980  0.32377107  0.93822595     0.13300
C4256       C  0.71397486  0.31071789  0.91679724    -0.22800
C4257       C  0.76961154  0.27251499  0.92983176    -0.05900
H4258       H  0.75846869  0.29897391  0.96911313     0.14800
C4259       C  0.69142410  0.34183560  0.94044870    -0.16100
H4260       H  0.70176976  0.31406658  0.90199246     0.09100
H4261       H  0.77801714  0.31582150  0.84230498     0.07000
H4262       H  0.76110687  0.30465101  0.81741407     0.08200
H4263       H  0.78670088  0.28776496  0.82895539     0.07200
H4264       H  0.69459611  0.25779753  0.90628237     0.02100
H4265       H  0.72088543  0.24285743  0.91822663     0.02600
H4266       H  0.70421648  0.22943126  0.89408285     0.06100
H4267       H  0.78074549  0.27142740  0.94634989     0.05100
H4268       H  0.78132208  0.27871770  0.91487976    -0.00700
H4269       H  0.76289888  0.25421498  0.92571672     0.00800
H4270       H  0.69887772  0.36022117  0.94231608     0.04500
H4271       H  0.68014480  0.33749902  0.95635680     0.06400
H4272       H  0.67964345  0.34181369  0.92435330     0.07300
C4273       C  0.99932978  0.27967558  0.00182641    -0.22400
C4274       C  0.01652355  0.26365092  0.99273469     0.09600
C4275       C  0.00926036  0.24124583  0.98341496     0.10000
C4276       C  0.98488539  0.23498710  0.98416021    -0.17300
C4277       C  0.96779750  0.25053421  0.99425247    -0.27700
C4278       C  0.97491721  0.27337416  0.00265059     0.18300
C4279       C  0.04223031  0.26973866  0.99496909     0.12300
C4280       C  0.02725990  0.22390437  0.97291963    -0.12000
H4281       H  0.97921011  0.21759989  0.97748094     0.12600
C4282       C  0.95679037  0.29122377  0.01199035    -0.22900
H4283       H  0.00513340  0.29691779  0.00874635     0.08200
C4284       C  0.05419084  0.28420731  0.97795560     0.04600
C4285       C  0.07899762  0.28812779  0.98039893    -0.20100
C4286       C  0.09195868  0.27800067  0.99958073    -0.12400
C4287       C  0.07964282  0.26387530  0.01694355     0.13300
C4288       C  0.05491838  0.26001663  0.01434458    -0.22800
C4289       C  0.04085779  0.29498621  0.95702389    -0.05900
H4290       H  0.08839342  0.29885048  0.96708874     0.14800
C4291       C  0.09236771  0.25175202  0.03762452    -0.16100
H4292       H  0.04540602  0.24889002  0.02724463     0.09100
H4293       H  0.96534762  0.30862601  0.01666527     0.07000
H4294       H  0.94794858  0.28408802  0.02839652     0.08200
H4295       H  0.94297070  0.29473175  0.99803010     0.07200
H4296       H  0.04050516  0.21852635  0.98682807     0.02100
H4297       H  0.03686515  0.23257262  0.95770138     0.02600
H4298       H  0.01845176  0.20735584  0.96611358     0.06100
H4299       H  0.05295374  0.30569616  0.94526286     0.05100
H4300       H  0.02638354  0.30702133  0.96370274    -0.00700
H4301       H  0.03274436  0.28046406  0.94605353     0.00800
H4302       H  0.09972874  0.26545725  0.05005608     0.04500
H4303       H  0.10709651  0.24013108  0.03074646     0.06400
H4304       H  0.08001477  0.24019467  0.04826002     0.07300
C4305       C  0.87433118  0.20467393  0.07169602    -0.22400
C4306       C  0.87515004  0.22368618  0.08798682     0.09600
C4307       C  0.88761524  0.24495301  0.08223294     0.10000
C4308       C  0.89905174  0.24678150  0.05984217    -0.17300
C4309       C  0.89782190  0.22791328  0.04316002    -0.27700
C4310       C  0.88539277  0.20650233  0.04922111     0.18300
C4311       C  0.86266739  0.22071845  0.11101791     0.12300
C4312       C  0.88854883  0.26565481  0.09962376    -0.12000
H4313       H  0.90856113  0.26313469  0.05514817     0.12600
C4314       C  0.88422088  0.18520017  0.03252641    -0.22900
H4315       H  0.86477972  0.18839538  0.07659813     0.08200
C4316       C  0.83784212  0.22527387  0.11309820     0.04600
C4317       C  0.82660327  0.22164273  0.13524825    -0.20100
C4318       C  0.83967940  0.21352194  0.15522131    -0.12400
C4319       C  0.86454659  0.20840308  0.15292672     0.13300
C4320       C  0.87573342  0.21211516  0.13069328    -0.22800
C4321       C  0.82328275  0.23403252  0.09200770    -0.05900
H4322       H  0.80758048  0.22559836  0.13709365     0.14800
C4323       C  0.87924135  0.19839457  0.17343623    -0.16100
H4324       H  0.89474030  0.20826272  0.12855297     0.09100
H4325       H  0.87342006  0.18971162  0.01640463     0.07000
H4326       H  0.87554016  0.16944467  0.04122088     0.08200
H4327       H  0.90266505  0.17978046  0.02707702     0.07200
H4328       H  0.89726674  0.25979526  0.11658589     0.02100
H4329       H  0.87002214  0.27197680  0.10364451     0.02600
H4330       H  0.89892597  0.28103368  0.09222679     0.06100
H4331       H  0.80408241  0.23670843  0.09688042     0.05100
H4332       H  0.82411133  0.22066598  0.07724629    -0.00700
H4333       H  0.83054239  0.25144879  0.08549739     0.00800
H4334       H  0.89775665  0.19357807  0.16762708     0.04500
H4335       H  0.87062240  0.18188547  0.18062858     0.06400
H4336       H  0.88091542  0.21192469  0.18794699     0.07300
C4337       C  0.86037636  0.22701948  0.87543334    -0.22400
C4338       C  0.86122020  0.20568504  0.88873667     0.09600
C4339       C  0.84891048  0.18509297  0.88071046     0.10000
C4340       C  0.83626739  0.18623285  0.85898827    -0.17300
C4341       C  0.83558959  0.20758895  0.84556645    -0.27700
C4342       C  0.84744887  0.22836760  0.85401519     0.18300
C4343       C  0.87294508  0.20672193  0.91230235     0.12300
C4344       C  0.84879065  0.16221952  0.89520817    -0.12000
H4345       H  0.82693570  0.17045781  0.85241659     0.12600
C4346       C  0.84550137  0.25228620  0.84127382    -0.22900
H4347       H  0.86937972  0.24287699  0.88226601     0.08200
C4348       C  0.89776393  0.20250348  0.91498542     0.04600
C4349       C  0.90872933  0.20797808  0.93694049    -0.20100
C4350       C  0.89547961  0.21817308  0.95590528    -0.12400
C4351       C  0.87041794  0.22210734  0.95310654     0.13300
C4352       C  0.85949418  0.21600661  0.93136933    -0.22800
C4353       C  0.91275141  0.19319037  0.89442412    -0.05900
H4354       H  0.92786637  0.20490639  0.93907371     0.14800
C4355       C  0.85523673  0.23420166  0.97208021    -0.16100
H4356       H  0.84051037  0.21964600  0.92870892     0.09100
H4357       H  0.85427558  0.25138611  0.82338882     0.07000
H4358       H  0.85441898  0.26687920  0.85152204     0.08200
H4359       H  0.82626709  0.25725476  0.83909140     0.07200
H4360       H  0.84083223  0.16566921  0.91318520     0.02100
H4361       H  0.86744699  0.15549848  0.89744874     0.02600
H4362       H  0.83807669  0.14791911  0.88634696     0.06100
H4363       H  0.93191143  0.19095548  0.89960405     0.05100
H4364       H  0.91192283  0.20599552  0.87912346    -0.00700
H4365       H  0.90585014  0.17546286  0.88851297     0.00800
H4366       H  0.83660777  0.23761375  0.96572435     0.04500
H4367       H  0.86323403  0.25182006  0.97691401     0.06400
H4368       H  0.85388889  0.22259974  0.98824833     0.07300
C4369       C  0.35329922  0.50352769  0.98311781    -0.22400
C4370       C  0.33525576  0.49283284  0.99712771     0.09600
C4371       C  0.32147968  0.50718944  0.01283984     0.10000
C4372       C  0.32540889  0.53209331  0.01353550    -0.17300
C4373       C  0.34299546  0.54307295  0.99906226    -0.27700
C4374       C  0.35765567  0.52841288  0.98416635     0.18300
C4375       C  0.33178465  0.46639664  0.99609925     0.12300
C4376       C  0.30253588  0.49620000  0.02881058    -0.12000
H4377       H  0.31423122  0.54314460  0.02506734     0.12600
C4378       C  0.37866683  0.53806550  0.97001348    -0.22900
H4379       H  0.36435863  0.49230209  0.97162630     0.08200
C4380       C  0.31538522  0.45566904  0.98005642     0.04600
C4381       C  0.31209116  0.43059491  0.98060318    -0.20100
C4382       C  0.32438437  0.41605557  0.99726657    -0.12400
C4383       C  0.34090332  0.42701283  0.01332256     0.13300
C4384       C  0.34449363  0.45197218  0.01230921    -0.22800
C4385       C  0.30116134  0.47075585  0.96263691    -0.05900
H4386       H  0.29940957  0.42238515  0.96834570     0.14800
C4387       C  0.35525062  0.41267967  0.03134062    -0.16100
H4388       H  0.35699949  0.46044095  0.02457889     0.09100
H4389       H  0.37515762  0.53599029  0.95049694     0.07000
H4390       H  0.39513256  0.52775710  0.97469384     0.08200
H4391       H  0.38254789  0.55715999  0.97396105     0.07200
H4392       H  0.31096487  0.48289635  0.04108305     0.02100
H4393       H  0.28876723  0.48703522  0.01771155     0.02600
H4394       H  0.29331318  0.50996713  0.03995160     0.06100
H4395       H  0.28907065  0.45959253  0.95138624     0.05100
H4396       H  0.31361223  0.48064531  0.95055058    -0.00700
H4397       H  0.28991000  0.48388706  0.97261054     0.00800
H4398       H  0.36858901  0.42401534  0.04088214     0.04500
H4399       H  0.36524046  0.39807513  0.02208978     0.06400
H4400       H  0.34312767  0.40499036  0.04520824     0.07300
C4401       C  0.30146771  0.67791462  0.10673504    -0.22400
C4402       C  0.31951666  0.66032247  0.10607407     0.09600
C4403       C  0.33326628  0.65557627  0.12680124     0.10000
C4404       C  0.32822761  0.66805857  0.14808301    -0.17300
C4405       C  0.31003068  0.68552400  0.14898068    -0.27700
C4406       C  0.29658643  0.69072174  0.12794707     0.18300
C4407       C  0.32386940  0.64680880  0.08359930     0.12300
C4408       C  0.35318434  0.63719559  0.12641231    -0.12000
H4409       H  0.33856704  0.66418921  0.16412855     0.12600
C4410       C  0.27649872  0.70899620  0.12795477    -0.22900
H4411       H  0.29107100  0.68145631  0.09065088     0.08200
C4412       C  0.31205383  0.62488625  0.07894305     0.04600
C4413       C  0.31803836  0.61181806  0.05819833    -0.20100
C4414       C  0.33555054  0.62024157  0.04202684    -0.12400
C4415       C  0.34772327  0.64202027  0.04706764     0.13300
C4416       C  0.34153228  0.65513121  0.06770074    -0.22800
C4417       C  0.29324579  0.61530227  0.09595547    -0.05900
H4418       H  0.30872435  0.59515318  0.05438224     0.14800
C4419       C  0.36806257  0.65094898  0.03148635    -0.16100
H4420       H  0.35086284  0.67172659  0.07178238     0.09100
H4421       H  0.26694372  0.70957684  0.11045227     0.07000
H4422       H  0.28382257  0.72722023  0.13134108     0.08200
H4423       H  0.26315617  0.70440094  0.14208496     0.07200
H4424       H  0.36689942  0.64239365  0.11284710     0.02100
H4425       H  0.34580458  0.61928267  0.12172647     0.02600
H4426       H  0.36223746  0.63569880  0.14411888     0.06100
H4427       H  0.28585824  0.59785114  0.08974396     0.05100
H4428       H  0.27816915  0.62833101  0.09738139    -0.00700
H4429       H  0.30120035  0.61251411  0.11402576     0.00800
H4430       H  0.36134772  0.65585136  0.01338648     0.04500
H4431       H  0.38204842  0.63676726  0.02988565     0.06400
H4432       H  0.37668822  0.66719302  0.03919550     0.07300
C4433       C  0.35032664  0.62783007  0.91270127    -0.22400
C4434       C  0.33055089  0.64334977  0.91059237     0.09600
C4435       C  0.31569001  0.64760303  0.93071285     0.10000
C4436       C  0.32066054  0.63580410  0.95241314    -0.17300
C4437       C  0.33981967  0.61943267  0.95434359    -0.27700
C4438       C  0.35518079  0.61580208  0.93439390     0.18300
C4439       C  0.32498571  0.65421033  0.88693055     0.12300
C4440       C  0.29447450  0.66444270  0.92922412    -0.12000
H4441       H  0.30901375  0.63879037  0.96776938     0.12600
C4442       C  0.37692793  0.59975208  0.93601397    -0.22900
H4443       H  0.36173999  0.62483342  0.89717848     0.08200
C4444       C  0.33767090  0.67430562  0.87801520     0.04600
C4445       C  0.33065195  0.68463688  0.85602993    -0.20100
C4446       C  0.31138749  0.67509332  0.84281163    -0.12400
C4447       C  0.29885923  0.65485598  0.85175566     0.13300
C4448       C  0.30589771  0.64462634  0.87366462    -0.22800
C4449       C  0.35814754  0.68510421  0.89199986    -0.05900
H4450       H  0.34011322  0.70025101  0.84918414     0.14800
C4451       C  0.27739812  0.64459229  0.83878077    -0.16100
H4452       H  0.29620243  0.62926900  0.88075587     0.09100
H4453       H  0.38782177  0.60032668  0.91927392     0.07000
H4454       H  0.37118893  0.58090777  0.93885105     0.08200
H4455       H  0.38854831  0.60559361  0.95112061     0.07200
H4456       H  0.28123837  0.65759172  0.91600886     0.02100
H4457       H  0.30063026  0.68256490  0.92354671     0.02600
H4458       H  0.28516254  0.66622760  0.94680532     0.06100
H4459       H  0.36594076  0.70095234  0.88265859     0.05100
H4460       H  0.37264519  0.67157305  0.89436672    -0.00700
H4461       H  0.35163761  0.69096175  0.90993593     0.00800
H4462       H  0.28306460  0.63699289  0.82124545     0.04500
H4463       H  0.26377559  0.65885983  0.83570778     0.06400
H4464       H  0.26869757  0.62996176  0.84923080     0.07300
C4465       C  0.05765347  0.81758741  0.97862260    -0.22400
C4466       C  0.04473118  0.80721324  0.99762088     0.09600
C4467       C  0.05703550  0.79610671  0.01673915     0.10000
C4468       C  0.08208255  0.79483763  0.01605570    -0.17300
C4469       C  0.09517640  0.80403946  0.99650588    -0.27700
C4470       C  0.08287711  0.81639257  0.97791821     0.18300
C4471       C  0.01844372  0.80483011  0.99579489     0.12300
C4472       C  0.04365599  0.78453928  0.03732650    -0.12000
H4473       H  0.09134852  0.78524255  0.03025193     0.12600
C4474       C  0.09558154  0.82866033  0.95732950    -0.22900
H4475       H  0.04798177  0.82612663  0.96400960     0.08200
C4476       C  0.00249748  0.82217004  0.00519951     0.04600
C4477       C  0.97774289  0.81711591  0.00572525    -0.20100
C4478       C  0.96898747  0.79507933  0.99719133    -0.12400
C4479       C  0.98508396  0.77777605  0.98790379     0.13300
C4480       C  0.00960225  0.78305632  0.98696953    -0.22800
C4481       C  0.01170078  0.84559118  0.01506329    -0.05900
H4482       H  0.96524517  0.83020868  0.01298179     0.14800
C4483       C  0.97666448  0.75319979  0.98023860    -0.16100
H4484       H  0.02216367  0.76969669  0.98030573     0.09100
H4485       H  0.08952699  0.84765799  0.95618684     0.07000
H4486       H  0.09107839  0.81945861  0.94023544     0.08200
H4487       H  0.11537366  0.82905389  0.95943161     0.07200
H4488       H  0.03217942  0.76972166  0.03055703     0.02100
H4489       H  0.03215837  0.79810544  0.04639259     0.02600
H4490       H  0.05612018  0.77685650  0.05090034     0.06100
H4491       H  0.99680976  0.85715911  0.02168951     0.05100
H4492       H  0.02149182  0.85553914  0.00077362    -0.00700
H4493       H  0.02412913  0.84206733  0.03026076     0.00800
H4494       H  0.96439381  0.75474718  0.96462798     0.04500
H4495       H  0.96711948  0.74430618  0.99537654     0.06400
H4496       H  0.99192766  0.74147066  0.97485928     0.07300
C4497       C  0.17168656  0.78749809  0.08381140    -0.22400
C4498       C  0.19194850  0.77269212  0.08378427     0.09600
C4499       C  0.20163377  0.76447780  0.06192219     0.10000
C4500       C  0.19006784  0.77048100  0.04038847    -0.17300
C4501       C  0.16900448  0.78462837  0.04015812    -0.27700
C4502       C  0.16006740  0.79376938  0.06239244     0.18300
C4503       C  0.20247023  0.76569778  0.10703019     0.12300
C4504       C  0.22421559  0.74946157  0.06136621    -0.12000
H4505       H  0.19737279  0.76357959  0.02371418     0.12600
C4506       C  0.13842198  0.81007458  0.06427583    -0.22900
H4507       H  0.16471301  0.79386211  0.10086780     0.08200
C4508       C  0.21689129  0.78175738  0.12015067     0.04600
C4509       C  0.22713957  0.77399028  0.14168360    -0.20100
C4510       C  0.22281167  0.75079050  0.15071037    -0.12400
C4511       C  0.20749784  0.73503311  0.13807405     0.13300
C4512       C  0.19763468  0.74267916  0.11616017    -0.22800
C4513       C  0.22168599  0.80694941  0.11136372    -0.05900
H4514       H  0.23855086  0.78620083  0.15167807     0.14800
C4515       C  0.20206058  0.71009684  0.14715592    -0.16100
H4516       H  0.18617131  0.73067610  0.10600413     0.09100
H4517       H  0.13562022  0.81668835  0.08289455     0.07000
H4518       H  0.12188775  0.80017913  0.05924346     0.08200
H4519       H  0.14088727  0.82608459  0.05259572     0.07200
H4520       H  0.22136665  0.73246836  0.07144492     0.02100
H4521       H  0.23921662  0.75959664  0.06972153     0.02600
H4522       H  0.22957076  0.74477649  0.04271672     0.06100
H4523       H  0.23366665  0.81695864  0.12377599     0.05100
H4524       H  0.20451431  0.81704935  0.11000393    -0.00700
H4525       H  0.23044423  0.80632806  0.09343540     0.00800
H4526       H  0.19052213  0.69998997  0.13442099     0.04500
H4527       H  0.19235526  0.71115353  0.16456226     0.06400
H4528       H  0.21902754  0.69985710  0.14958430     0.07300
C4529       C  0.20980707  0.72752039  0.88734508    -0.22400
C4530       C  0.18993555  0.74298533  0.88664689     0.09600
C4531       C  0.18066526  0.75087013  0.86442367     0.10000
C4532       C  0.19243002  0.74410639  0.84325844    -0.17300
C4533       C  0.21349977  0.73026093  0.84407405    -0.27700
C4534       C  0.22178663  0.72100471  0.86620196     0.18300
C4535       C  0.18060463  0.75244533  0.90947224     0.12300
C4536       C  0.15889036  0.76697516  0.86311513    -0.12000
H4537       H  0.18602235  0.75085621  0.82612716     0.12600
C4538       C  0.24297005  0.70411664  0.86754085    -0.22900
H4539       H  0.21645749  0.72128717  0.90456705     0.08200
C4540       C  0.16505733  0.73888267  0.92418388     0.04600
C4541       C  0.15688726  0.74886548  0.94579534    -0.20100
C4542       C  0.16429386  0.77183761  0.95292698    -0.12400
C4543       C  0.18022729  0.78518774  0.93844753     0.13300
C4544       C  0.18818146  0.77532459  0.91672552    -0.22800
C4545       C  0.15696527  0.71411623  0.91693049    -0.05900
H4546       H  0.14462570  0.73879883  0.95714771     0.14800
C4547       C  0.18856430  0.80983733  0.94579871    -0.16100
H4548       H  0.20035129  0.78543716  0.90530917     0.09100
H4549       H  0.24631796  0.69792209  0.88622638     0.07000
H4550       H  0.23933135  0.68806117  0.85633568     0.08200
H4551       H  0.25955012  0.71311526  0.86106695     0.07200
H4552       H  0.16261169  0.78421936  0.87237899     0.02100
H4553       H  0.14334586  0.75801772  0.87189488     0.02600
H4554       H  0.15387789  0.77112903  0.84423930     0.06100
H4555       H  0.14458124  0.70612708  0.93043048     0.05100
H4556       H  0.17279358  0.70206460  0.91513924    -0.00700
H4557       H  0.14740655  0.71505521  0.89945626     0.00800
H4558       H  0.20085089  0.81785910  0.93222294     0.04500
H4559       H  0.19834808  0.80867154  0.96313398     0.06400
H4560       H  0.17281556  0.82194941  0.94791070     0.07300
loop_ 
_geom_bond_atom_site_label_1 
_geom_bond_atom_site_label_2 
_geom_bond_distance 
_geom_bond_site_symmetry_2 
_ccdc_geom_bond_type 
C1            N2   1.355       .  A
C1            N6   1.358       .  A
C1         C4542   1.461       .  S
N2            C3   1.354       .  A
C3            N4   1.354   1_556  A
C3         C4469   1.475       .  S
N4            C5   1.353       .  A
C5            N6   1.360   1_554  A
C5         C4501   1.492       .  S
C7            N8   1.360       .  A
C7           N12   1.355   1_554  A
C7         C4414   1.481       .  S
N8            C9   1.363   1_554  A
C9           N10   1.361       .  A
C9         C4373   1.486       .  S
N10          C11   1.360       .  A
C11          N12   1.356       .  A
C11        C4437   1.479       .  S
C13          N14   1.357       .  A
C13          N18   1.352   1_554  A
C13        C4309   1.471       .  S
N14          C15   1.359   1_554  A
C15          N16   1.357       .  A
C15        C4277   1.468       .  S
N16          C17   1.357       .  A
C17          N18   1.351       .  A
C17        C4350   1.475       .  S
C19          N20   1.356       .  A
C19          N24   1.358   1_556  A
C19        C4254   1.477       .  S
N20          C21   1.356       .  A
C21          N22   1.358   1_556  A
C21        C4190   1.477       .  S
N22          C23   1.359       .  A
C23          N24   1.360       .  A
C23        C4213   1.478       .  S
C25          N26   1.354       .  A
C25          N30   1.354       .  A
C25        C4149   1.472       .  S
N26          C27   1.355       .  A
C27          N28   1.363       .  A
C27        C4094   1.489       .  S
N28          C29   1.361       .  A
C29          N30   1.355       .  A
C29        C4117   1.482   1_565  S
C31          N32   1.355       .  A
C31          N36   1.360       .  A
C31        C4021   1.490   1_565  S
N32          C33   1.355       .  A
C33          N34   1.359       .  A
C33        C3998   1.480       .  S
N34          C35   1.362       .  A
C35          N36   1.361       .  A
C35        C4053   1.488       .  S
C37          N38   1.354       .  A
C37          N42   1.358       .  A
C37        C3925   1.489   1_565  S
N38          C39   1.354       .  A
C39          N40   1.353       .  A
C39        C3957   1.458       .  S
N40          C41   1.355       .  A
C41          N42   1.355       .  A
C41        C3893   1.478       .  S
C43          N44   1.355       .  A
C43          N48   1.357       .  A
C43        C3861   1.472       .  S
N44          C45   1.355       .  A
C45          N46   1.357       .  A
C45        C3797   1.485       .  S
N46          C47   1.359       .  A
C47          N48   1.358       .  A
C47        C3829   1.489   1_565  S
C49          N50   1.360       .  A
C49          N54   1.358       .  A
C49        C3742   1.477       .  S
N50          C51   1.357   1_554  A
C51          N52   1.355       .  A
C51        C4478   1.466       .  S
N52          C53   1.353       .  A
C53          N54   1.356   1_556  A
C53        C3765   1.466       .  S
C55          N56   1.359   1_554  A
C55          N60   1.361       .  A
C55        C3669   1.487       .  S
N56          C57   1.357       .  A
C57          N58   1.357       .  A
C57        C3710   1.483       .  S
N58          C59   1.358       .  A
C59          N60   1.360   1_556  A
C59        C4181   1.485       .  S
C61          N62   1.359       .  A
C61          N66   1.356   1_556  A
C61        C3637   1.478       .  S
N62          C63   1.358       .  A
C63          N64   1.354   1_556  A
C63        C4286   1.478       .  S
N64          C65   1.353       .  A
C65          N66   1.356       .  A
C65        C3614   1.472       .  S
C67          N68   1.358       .  A
C67          N72   1.364       .  A
C67        C3573   1.481       .  S
N68          C69   1.356   1_556  A
C69          N70   1.355       .  A
C69        C3550   1.474       .  S
N70          C71   1.355   1_554  A
C71          N72   1.361       .  A
C71        C4382   1.489       .  S
C73          N74   1.355       .  A
C73          N78   1.357       .  A
C73        C3509   1.473       .  S
N74          C75   1.355       .  A
C75          N76   1.358       .  A
C75        C4085   1.473       .  S
N76          C77   1.360       .  A
C77          N78   1.360       .  A
C77        C3477   1.496   1_565  S
C79          N80   1.353       .  A
C79          N84   1.357       .  A
C79        C3413   1.479   1_565  S
N80          C81   1.354       .  A
C81          N82   1.358       .  A
C81        C3806   1.474       .  S
N82          C83   1.360       .  A
C83          N84   1.361       .  A
C83        C3454   1.494       .  S
C85          N86   1.357       .  A
C85          N90   1.359   1_545  A
C85        C3349   1.497       .  S
N86          C87   1.355   1_545  A
C87          N88   1.354       .  A
C87        C3902   1.467       .  S
N88          C89   1.354       .  A
C89          N90   1.362       .  A
C89        C3381   1.496       .  S
C91          N92   1.362       .  A
C91          N96   1.358       .  A
C91        C3326   1.485       .  S
N92          C93   1.363   1_565  A
C93          N94   1.361       .  A
C93        C3294   1.491       .  S
N94          C95   1.357   1_545  A
C95          N96   1.355       .  A
C95        C3989   1.482       .  S
C97          N98   1.357       .  A
C97         N102   1.360       .  A
C97        C3262   1.490   1_455  S
N98          C99   1.355       .  A
C99         N100   1.350       .  A
C99        C3221   1.476       .  S
N100        C101   1.351       .  A
C101        N102   1.358       .  A
C101       C3189   1.467       .  S
C103        N104   1.358       .  A
C103        N108   1.356       .  A
C103       C3166   1.479   1_455  S
N104        C105   1.360       .  A
C105        N106   1.358       .  A
C105       C3125   1.490       .  S
N106        C107   1.359       .  A
C107        N108   1.355       .  A
C107       C3093   1.486       .  S
C109        N110   1.358       .  A
C109        N114   1.356       .  A
C109       C3029   1.467       .  S
N110        C111   1.359       .  A
C111        N112   1.358       .  A
C111       C3198   1.483       .  S
N112        C113   1.353       .  A
C113        N114   1.355       .  A
C113       C3061   1.463   1_455  S
C115        N116   1.357       .  A
C115        N120   1.361       .  A
C115       C3006   1.491   1_455  S
N116        C117   1.356       .  A
C117        N118   1.355       .  A
C117       C2933   1.472       .  S
N118        C119   1.356       .  A
C119        N120   1.357       .  A
C119       C2965   1.477       .  S
C121        N122   1.356       .  A
C121        N126   1.357       .  A
C121       C2901   1.482       .  S
N122        C123   1.356       .  A
C123        N124   1.355       .  A
C123       C2869   1.469   1_455  S
N124        C125   1.356       .  A
C125        N126   1.357       .  A
C125       C2837   1.475       .  S
C127        N128   1.357       .  A
C127        N132   1.361       .  A
C127       C2805   1.480       .  S
N128        C129   1.357       .  A
C129        N130   1.354       .  A
C129       C2942   1.479       .  S
N130        C131   1.355       .  A
C131        N132   1.362       .  A
C131       C2782   1.484   1_455  S
C133        N134   1.355       .  A
C133        N138   1.351       .  A
C133       C2750   1.465   1_455  S
N134        C135   1.358       .  A
C135        N136   1.360       .  A
C135       C2709   1.486       .  S
N136        C137   1.359       .  A
C137        N138   1.354       .  A
C137       C2846   1.474       .  S
C139        N140   1.359       .  A
C139        N144   1.358       .  A
C139       C2654   1.486       .  S
N140        C141   1.360       .  A
C141        N142   1.357       .  A
C141       C2677   1.485   1_455  S
N142        C143   1.356       .  A
C143        N144   1.355       .  A
C143       C3102   1.480       .  S
C145        N146   1.357       .  A
C145        N150   1.358       .  A
C145       C2590   1.481       .  S
N146        C147   1.359       .  A
C147        N148   1.358       .  A
C147       C2613   1.481       .  S
N148        C149   1.359       .  A
C149        N150   1.358       .  A
C149       C2549   1.481       .  S
C151        N152   1.356       .  A
C151        N156   1.359       .  A
C151       C2517   1.486       .  S
N152        C153   1.357       .  A
C153        N154   1.359       .  A
C153       C2494   1.477       .  S
N154        C155   1.360       .  A
C155        N156   1.357       .  A
C155       C2453   1.483       .  S
O157       Zr193   2.415       .  S
O157        C168   1.289       .  A
O158       Zr192   2.428       .  S
O158        C169   1.290       .  A
O159       Zr165   2.437       .  S
O159        C170   1.291       .  A
O160       Zr165   2.424       .  S
O160        C171   1.289       .  A
O161       Zr195   2.447       .  S
O161        C171   1.293       .  A
O162       Zr194   2.439       .  S
O162        C170   1.292       .  A
O163       Zr165   2.444       .  S
O163        C169   1.293       .  A
O164       Zr165   2.444       .  S
O164        C168   1.293       .  A
Zr165       O166   2.337       .  S
Zr165       O167   2.341       .  S
Zr165       O175   2.334       .  S
Zr165       O173   2.331       .  S
O166       Zr192   2.337       .  S
O166       Zr195   2.343       .  S
O167       Zr193   2.347       .  S
O167       Zr194   2.333       .  S
C168       C4510   1.470       .  S
C169       C2814   1.480       .  S
C170       C2485   1.483       .  S
C171       C2910   1.464       .  S
H172        O173   0.965       .  S
O173       Zr192   2.331       .  S
O173       Zr194   2.342       .  S
H174        O175   0.964       .  S
O175       Zr193   2.323       .  S
O175       Zr195   2.323       .  S
O176       Zr192   2.417       .  S
O176        C199   1.289       .  A
O177       Zr193   2.435       .  S
O177        C200   1.291       .  A
O178       Zr194   2.416       .  S
O178        C201   1.288       .  A
O179       Zr195   2.409       .  S
O179        C202   1.287       .  A
O180       Zr195   2.426       .  S
O180        C203   1.291       .  A
O181       Zr194   2.446       .  S
O181        C204   1.294       .  A
O182       Zr196   2.419       .  S
O182        C205   1.289       .  A
O183       Zr196   2.436       .  S
O183        C206   1.291       .  A
O184       Zr194   2.436       .  S
O184        C205   1.292       .  A
O185       Zr195   2.451       .  S
O185        C206   1.294       .  A
O186       Zr192   2.457       .  S
O186        C201   1.296       .  A
O187       Zr193   2.427       .  S
O187        C204   1.289       .  A
O188       Zr193   2.447       .  S
O188        C203   1.293       .  A
O189       Zr192   2.440       .  S
O189        C202   1.293       .  A
O190       Zr196   2.438       .  S
O190        C199   1.290       .  A
O191       Zr196   2.424       .  S
O191        C200   1.290       .  A
Zr192       O198   2.333       .  S
Zr192       O210   2.345       .  S
Zr193       O197   2.340       .  S
Zr193       O208   2.333       .  S
Zr194       O198   2.342       .  S
Zr194       O208   2.331       .  S
Zr195       O197   2.341       .  S
Zr195       O210   2.339       .  S
Zr196       O197   2.341       .  S
Zr196       O198   2.335       .  S
Zr196       O210   2.335       .  S
Zr196       O208   2.347       .  S
C199       C2389   1.490       .  S
C200       C2366   1.476       .  S
C201       C2581   1.474       .  S
C202       C2430   1.474       .  S
C203       C3390   1.483       .  S
C204       C4405   1.479       .  S
C205       C2325   1.462       .  S
C206       C3317   1.483       .  S
H207        O208   0.965       .  S
H209        O210   0.966       .  S
C211        N212   1.356       .  A
C211        N216   1.359       .  A
C211       C2302   1.477       .  S
N212        C213   1.355       .  A
C213        N214   1.348       .  A
C213       C2229   1.471       .  S
N214        C215   1.352       .  A
C215        N216   1.356       .  A
C215       C2261   1.480       .  S
C217        N218   1.358       .  A
C217        N222   1.363       .  A
C217       C2197   1.501       .  S
N218        C219   1.358       .  A
C219        N220   1.357       .  A
C219       C2165   1.475       .  S
N220        C221   1.358       .  A
C221        N222   1.362       .  A
C221       C2133   1.492       .  S
O223       Zr259   2.404       .  S
O223        C234   1.285       .  A
O224       Zr258   2.438       .  S
O224        C235   1.292       .  A
O225       Zr231   2.444       .  S
O225        C236   1.293       .  A
O226       Zr231   2.420       .  S
O226        C237   1.289       .  A
O227       Zr261   2.417       .  S
O227        C237   1.288       .  A
O228       Zr260   2.412       .  S
O228        C236   1.286       .  A
O229       Zr231   2.426       .  S
O229        C235   1.291       .  A
O230       Zr231   2.452       .  S
O230        C234   1.294       .  A
Zr231       O232   2.342       .  S
Zr231       O233   2.331       .  S
Zr231       O241   2.334       .  S
Zr231       O239   2.337       .  S
O232       Zr258   2.326       .  S
O232       Zr261   2.324       .  S
O233       Zr259   2.342       .  S
O233       Zr260   2.333       .  S
C234       C3934   1.458       .  S
C235       C3582   1.479       .  S
C236       C2037   1.467       .  S
C237       C3646   1.456       .  S
H238        O239   0.966       .  S
O239       Zr258   2.345       .  S
O239       Zr260   2.336       .  S
H240        O241   0.964       .  S
O241       Zr259   2.338       .  S
O241       Zr261   2.334       .  S
O242       Zr258   2.450       .  S
O242        C265   1.294       .  A
O243       Zr259   2.430       .  S
O243        C266   1.290       .  A
O244       Zr260   2.427       .  S
O244        C267   1.289       .  A
O245       Zr261   2.437       .  S
O245        C268   1.290       .  A
O246       Zr261   2.404       .  S
O246        C269   1.287       .  A
O247       Zr260   2.436       .  S
O247        C270   1.291       .  A
O248       Zr262   2.424       .  S
O248        C271   1.291       .  A
O249       Zr262   2.446       .  S
O249        C272   1.295       .  A
O250       Zr260   2.407       .  S
O250        C271   1.285       .  A
O251       Zr261   2.419       .  S
O251        C272   1.287       .  A
O252       Zr258   2.425       .  S
O252        C267   1.291       .  A
O253       Zr259   2.427       .  S
O253        C270   1.290       .  A
O254       Zr259   2.429       .  S
O254        C269   1.289       .  A
O255       Zr258   2.433       .  S
O255        C268   1.292       .  A
O256       Zr262   2.408       .  S
O256        C265   1.288       .  A
O257       Zr262   2.424       .  S
O257        C266   1.291       .  A
Zr258       O264   2.333       .  S
Zr258       O276   2.328       .  S
Zr259       O263   2.335       .  S
Zr259       O274   2.330       .  S
Zr260       O264   2.336       .  S
Zr260       O274   2.334       .  S
Zr261       O263   2.341       .  S
Zr261       O276   2.316       .  S
Zr262       O263   2.330       .  S
Zr262       O264   2.337       .  S
Zr262       O276   2.329       .  S
Zr262       O274   2.331       .  S
C265       C2069   1.474       .  S
C266       C2174   1.476       .  S
C267       C2005   1.477       .  S
C268       C2110   1.485       .  S
C269       C3230   1.474       .  S
C270       C3838   1.464       .  S
C271       C2270   1.469       .  S
C272       C3134   1.484       .  S
H273        O274   0.966       .  S
H275        O276   0.966       .  S
C277        N278   1.356       .  A
C277        N282   1.355       .  A
C277       C2398   1.480       .  S
N278        C279   1.355       .  A
C279        N280   1.357       .  A
C279       C1941   1.471       .  S
N280        C281   1.354       .  A
C281        N282   1.357       .  A
C281       C1973   1.481       .  S
C283        N284   1.360       .  A
C283        N288   1.355       .  A
C283       C1909   1.481       .  S
N284        C285   1.361       .  A
C285        N286   1.357       .  A
C285       C2142   1.487       .  S
N286        C287   1.357       .  A
C287        N288   1.354       .  A
C287       C2421   1.464       .  S
C289        N290   1.359       .  A
C289        N294   1.354       .  A
C289       C1886   1.486       .  S
N290        C291   1.354       .  A
C291        N292   1.357       .  A
C291       C2558   1.465       .  S
N292        C293   1.357       .  A
C293        N294   1.355       .  A
C293       C2078   1.476       .  S
C295        N296   1.359       .  A
C295        N300   1.359       .  A
C295       C2101   1.483       .  S
N296        C297   1.359       .  A
C297        N298   1.360       .  A
C297       C1854   1.482       .  S
N298        C299   1.360       .  A
C299        N300   1.358       .  A
C299       C1813   1.483       .  S
O301       Zr337   2.440       .  S
O301        C312   1.292       .  A
O302       Zr336   2.450       .  S
O302        C313   1.295       .  A
O303       Zr309   2.427       .  S
O303        C314   1.289       .  A
O304       Zr309   2.444       .  S
O304        C315   1.292       .  A
O305       Zr339   2.427       .  S
O305        C315   1.290       .  A
O306       Zr338   2.451       .  S
O306        C314   1.295       .  A
O307       Zr309   2.429       .  S
O307        C313   1.289       .  A
O308       Zr309   2.417       .  S
O308        C312   1.288       .  A
Zr309       O310   2.322       .  S
Zr309       O311   2.335       .  S
Zr309       O319   2.345       .  S
Zr309       O317   2.346       .  S
O310       Zr336   2.334       .  S
O310       Zr339   2.336       .  S
O311       Zr337   2.341       .  S
O311       Zr338   2.337       .  S
C312       C4533   1.463       .  S
C313       C2974   1.482       .  S
C314       C3038   1.482       .  S
C315       C1845   1.482       .  S
H316        O317   0.966       .  S
O317       Zr336   2.342       .  S
O317       Zr338   2.337       .  S
H318        O319   0.966       .  S
O319       Zr337   2.344       .  S
O319       Zr339   2.328       .  S
O320       Zr336   2.446       .  S
O320        C343   1.295       .  A
O321       Zr337   2.460       .  S
O321        C344   1.296       .  A
O322       Zr338   2.437       .  S
O322        C345   1.292       .  A
O323       Zr339   2.416       .  S
O323        C346   1.288       .  A
O324       Zr339   2.440       .  S
O324        C347   1.292       .  A
O325       Zr338   2.416       .  S
O325        C348   1.288       .  A
O326       Zr340   2.432       .  S
O326        C349   1.290       .  A
O327       Zr340   2.425       .  S
O327        C350   1.288       .  A
O328       Zr338   2.440       .  S
O328        C349   1.292       .  A
O329       Zr339   2.421       .  S
O329        C350   1.290       .  A
O330       Zr336   2.434       .  S
O330        C345   1.291       .  A
O331       Zr337   2.421       .  S
O331        C348   1.289       .  A
O332       Zr337   2.433       .  S
O332        C347   1.290       .  A
O333       Zr336   2.433       .  S
O333        C346   1.291       .  A
O334       Zr340   2.419       .  S
O334        C343   1.287       .  A
O335       Zr340   2.419       .  S
O335        C344   1.288       .  A
Zr336       O342   2.334       .  S
Zr336       O354   2.346       .  S
Zr337       O341   2.326       .  S
Zr337       O352   2.343       .  S
Zr338       O342   2.331       .  S
Zr338       O352   2.348       .  S
Zr339       O341   2.326       .  S
Zr339       O354   2.342       .  S
Zr340       O341   2.330       .  S
Zr340       O342   2.328       .  S
Zr340       O354   2.342       .  S
Zr340       O352   2.340       .  S
C343       C1982   1.486       .  S
C344       C1790   1.478       .  S
C345       C1918   1.477       .  S
C346       C1877   1.457       .  S
C347       C4446   1.476       .  S
C348       C3966   1.450       .  S
C349       C3870   1.474       .  S
C350       C1749   1.477       .  S
H351        O352   0.966       .  S
H353        O354   0.966       .  S
C355        N356   1.362       .  A
C355        N360   1.351       .  A
C355       C1717   1.492       .  S
N356        C357   1.362       .  A
C357        N358   1.358       .  A
C357       C1685   1.482       .  S
N358        C359   1.356       .  A
C359        N360   1.351       .  A
C359       C1653   1.464       .  S
C361        N362   1.360       .  A
C361        N366   1.356       .  A
C361       C1598   1.485       .  S
N362        C363   1.359       .  A
C363        N364   1.357       .  A
C363       C2462   1.483       .  S
N364        C365   1.357       .  A
C365        N366   1.355       .  A
C365       C1621   1.475       .  S
C367        N368   1.356       .  A
C367        N372   1.359       .  A
C367       C1557   1.492       .  S
N368        C369   1.355       .  A
C369        N370   1.353       .  A
C369       C2334   1.459       .  S
N370        C371   1.354       .  A
C371        N372   1.356       .  A
C371       C1525   1.482       .  S
C373        N374   1.361       .  A
C373        N378   1.359       .  A
C373       C1493   1.494       .  S
N374        C375   1.361       .  A
C375        N376   1.356       .  A
C375       C1461   1.493       .  S
N376        C377   1.355       .  A
C377        N378   1.354       .  A
C377       C2357   1.467       .  S
O379       Zr415   2.407       .  S
O379        C390   1.288       .  A
O380       Zr414   2.430       .  S
O380        C391   1.290       .  A
O381       Zr387   2.437       .  S
O381        C392   1.291       .  A
O382       Zr387   2.431       .  S
O382        C393   1.291       .  A
O383       Zr417   2.428       .  S
O383        C393   1.289       .  A
O384       Zr416   2.429       .  S
O384        C392   1.289       .  A
O385       Zr387   2.437       .  S
O385        C391   1.293       .  A
O386       Zr387   2.443       .  S
O386        C390   1.292       .  A
Zr387       O388   2.337       .  S
Zr387       O389   2.327       .  S
Zr387       O397   2.341       .  S
Zr387       O395   2.344       .  S
O388       Zr414   2.338       .  S
O388       Zr417   2.338       .  S
O389       Zr415   2.334       .  S
O389       Zr416   2.328       .  S
C390       C4158   1.488       .  S
C391       C3678   1.478       .  S
C392       C3733   1.464       .  S
C393       C1502   1.469       .  S
H394        O395   0.966       .  S
O395       Zr414   2.346       .  S
O395       Zr416   2.338       .  S
H396        O397   0.967       .  S
O397       Zr415   2.338       .  S
O397       Zr417   2.329       .  S
O398       Zr414   2.441       .  S
O398        C421   1.292       .  A
O399       Zr415   2.438       .  S
O399        C422   1.292       .  A
O400       Zr416   2.443       .  S
O400        C423   1.293       .  A
O401       Zr417   2.413       .  S
O401        C424   1.287       .  A
O402       Zr417   2.427       .  S
O402        C425   1.290       .  A
O403       Zr416   2.435       .  S
O403        C426   1.292       .  A
O404       Zr418   2.438       .  S
O404        C427   1.292       .  A
O405       Zr418   2.425       .  S
O405        C428   1.289       .  A
O406       Zr416   2.428       .  S
O406        C427   1.290       .  A
O407       Zr417   2.428       .  S
O407        C428   1.291       .  A
O408       Zr414   2.422       .  S
O408        C423   1.289       .  A
O409       Zr415   2.437       .  S
O409        C426   1.291       .  A
O410       Zr415   2.448       .  S
O410        C425   1.294       .  A
O411       Zr414   2.438       .  S
O411        C424   1.292       .  A
O412       Zr418   2.435       .  S
O412        C421   1.293       .  A
O413       Zr418   2.432       .  S
O413        C422   1.290       .  A
Zr414       O420   2.341       .  S
Zr414       O432   2.331       .  S
Zr415       O419   2.329       .  S
Zr415       O430   2.334       .  S
Zr416       O420   2.335       .  S
Zr416       O430   2.344       .  S
Zr417       O419   2.336       .  S
Zr417       O432   2.336       .  S
Zr418       O419   2.342       .  S
Zr418       O420   2.335       .  S
Zr418       O432   2.336       .  S
Zr418       O430   2.334       .  S
C421       C1694   1.487       .  S
C422       C1429   1.473       .  S
C423       C1589   1.477       .  S
C424       C1566   1.466       .  S
C425       C4062   1.481       .  S
C426       C2878   1.491       .  S
C427       C2773   1.467       .  S
C428       C1397   1.482       .  S
H429        O430   0.966       .  S
H431        O432   0.966       .  S
C433        N434   1.355       .  A
C433        N438   1.355       .  A
C433       C1374   1.473       .  S
N434        C435   1.353       .  A
C435        N436   1.355       .  A
C435       C1950   1.475       .  S
N436        C437   1.354       .  A
C437        N438   1.357       .  A
C437       C1406   1.471       .  S
C439        N440   1.357       .  A
C439        N444   1.355       .  A
C439       C1333   1.467       .  S
N440        C441   1.361       .  A
C441        N442   1.360       .  A
C441       C1438   1.486       .  S
N442        C443   1.357       .  A
C443        N444   1.353       .  A
C443       C1301   1.474       .  S
C445        N446   1.356       .  A
C445        N450   1.355       .  A
C445       C1269   1.463       .  S
N446        C447   1.356       .  A
C447        N448   1.354       .  A
C447       C1758   1.469       .  S
N448        C449   1.354       .  A
C449        N450   1.357       .  A
C449       C1237   1.475       .  S
C451        N452   1.360       .  A
C451        N456   1.362       .  A
C451       C1781   1.487       .  S
N452        C453   1.358       .  A
C453        N454   1.358       .  A
C453       C1205   1.476       .  S
N454        C455   1.358       .  A
C455        N456   1.361       .  A
C455       C1470   1.485       .  S
C457        N458   1.357       .  A
C457        N462   1.357       .  A
C457       C1141   1.478       .  S
N458        C459   1.357       .  A
C459        N460   1.355       .  A
C459       C1173   1.477       .  S
N460        C461   1.356       .  A
C461        N462   1.355       .  A
C461       C1662   1.479       .  S
C463        N464   1.362       .  A
C463        N468   1.364       .  A
C463       C1118   1.492       .  S
N464        C465   1.359       .  A
C465        N466   1.353       .  A
C465       C1822   1.487       .  S
N466        C467   1.355       .  A
C467        N468   1.364       .  A
C467       C1077   1.480       .  S
O469       Zr505   2.437       .  S
O469        C480   1.293       .  A
O470       Zr504   2.425       .  S
O470        C481   1.289       .  A
O471       Zr477   2.449       .  S
O471        C482   1.294       .  A
O472       Zr477   2.429       .  S
O472        C483   1.291       .  A
O473       Zr507   2.437       .  S
O473        C483   1.292       .  A
O474       Zr506   2.435       .  S
O474        C482   1.290       .  A
O475       Zr477   2.447       .  S
O475        C481   1.293       .  A
O476       Zr477   2.435       .  S
O476        C480   1.292       .  A
Zr477       O478   2.346       .  S
Zr477       O479   2.343       .  S
Zr477       O487   2.336       .  S
Zr477       O485   2.327       .  S
O478       Zr504   2.336       .  S
O478       Zr507   2.342       .  S
O479       Zr505   2.349       .  S
O479       Zr506   2.336       .  S
C480       C3774   1.472       .  S
C481       C2997   1.474       .  S
C482       C1109   1.483       .  S
C483       C3070   1.475       .  S
H484        O485   0.965       .  S
O485       Zr504   2.333       .  S
O485       Zr506   2.333       .  S
H486        O487   0.965       .  S
O487       Zr505   2.339       .  S
O487       Zr507   2.338       .  S
O488       Zr504   2.420       .  S
O488        C511   1.288       .  A
O489       Zr505   2.462       .  S
O489        C512   1.297       .  A
O490       Zr506   2.424       .  S
O490        C513   1.288       .  A
O491       Zr507   2.460       .  S
O491        C514   1.296       .  A
O492       Zr507   2.434       .  S
O492        C515   1.292       .  A
O493       Zr506   2.421       .  S
O493        C516   1.288       .  A
O494       Zr508   2.429       .  S
O494        C517   1.290       .  A
O495       Zr508   2.439       .  S
O495        C518   1.291       .  A
O496       Zr506   2.423       .  S
O496        C517   1.290       .  A
O497       Zr507   2.439       .  S
O497        C518   1.291       .  A
O498       Zr504   2.431       .  S
O498        C513   1.292       .  A
O499       Zr505   2.453       .  S
O499        C516   1.296       .  A
O500       Zr505   2.458       .  S
O500        C515   1.296       .  A
O501       Zr504   2.414       .  S
O501        C514   1.288       .  A
O502       Zr508   2.437       .  S
O502        C511   1.291       .  A
O503       Zr508   2.428       .  S
O503        C512   1.291       .  A
Zr504       O510   2.335       .  S
Zr504       O522   2.339       .  S
Zr505       O509   2.347       .  S
Zr505       O520   2.330       .  S
Zr506       O510   2.342       .  S
Zr506       O520   2.334       .  S
Zr507       O509   2.352       .  S
Zr507       O522   2.331       .  S
Zr508       O509   2.345       .  S
Zr508       O510   2.346       .  S
Zr508       O522   2.332       .  S
Zr508       O520   2.338       .  S
C511       C1365   1.459       .  S
C512       C1214   1.486       .  S
C513       C1182   1.472       .  S
C514       C1342   1.482       .  S
C515       C3518   1.485       .  S
C516       C3701   1.483       .  S
C517       C1278   1.469       .  S
C518       C3445   1.470       .  S
H519        O520   0.965       .  S
H521        O522   0.966       .  S
C523        N524   1.360       .  A
C523        N528   1.356       .  A
C523       C1013   1.495       .  S
N524        C525   1.357       .  A
C525        N526   1.356       .  A
C525       C1534   1.476       .  S
N526        C527   1.356       .  A
C527        N528   1.356       .  A
C527       C1045   1.463       .  S
C529        N530   1.364       .  A
C529        N534   1.362       .  A
C529        C990   1.490       .  S
N530        C531   1.362       .  A
C531        N532   1.356       .  A
C531        C958   1.482       .  S
N532        C533   1.356       .  A
C533        N534   1.357       .  A
C533        C917   1.476       .  S
O535       Zr571   2.430       .  S
O535        C546   1.291       .  A
O536       Zr570   2.452       .  S
O536        C547   1.294       .  A
O537       Zr543   2.446       .  S
O537        C548   1.293       .  A
O538       Zr543   2.435       .  S
O538        C549   1.292       .  A
O539       Zr573   2.424       .  S
O539        C549   1.289       .  A
O540       Zr572   2.426       .  S
O540        C548   1.290       .  A
O541       Zr543   2.417       .  S
O541        C547   1.287       .  A
O542       Zr543   2.409       .  S
O542        C546   1.286       .  A
Zr543       O544   2.337       .  S
Zr543       O545   2.335       .  S
Zr543       O553   2.333       .  S
Zr543       O551   2.327       .  S
O544       Zr570   2.337       .  S
O544       Zr573   2.347       .  S
O545       Zr571   2.343       .  S
O545       Zr572   2.328       .  S
C546       C4318   1.466       .  S
C547       C2686   1.480       .  S
C548       C1630   1.478       .  S
C549       C2741   1.467       .  S
H550        O551   0.966       .  S
O551       Zr570   2.333       .  S
O551       Zr572   2.342       .  S
H552        O553   0.965       .  S
O553       Zr571   2.335       .  S
O553       Zr573   2.330       .  S
O554       Zr570   2.423       .  S
O554        C577   1.289       .  A
O555       Zr571   2.458       .  S
O555        C578   1.296       .  A
O556       Zr572   2.434       .  S
O556        C579   1.291       .  A
O557       Zr573   2.432       .  S
O557        C580   1.291       .  A
O558       Zr573   2.439       .  S
O558        C581   1.291       .  A
O559       Zr572   2.454       .  S
O559        C582   1.296       .  A
O560       Zr574   2.430       .  S
O560        C583   1.291       .  A
O561       Zr574   2.455       .  S
O561        C584   1.295       .  A
O562       Zr572   2.438       .  S
O562        C583   1.291       .  A
O563       Zr573   2.427       .  S
O563        C584   1.290       .  A
O564       Zr570   2.445       .  S
O564        C579   1.293       .  A
O565       Zr571   2.418       .  S
O565        C582   1.288       .  A
O566       Zr571   2.449       .  S
O566        C581   1.294       .  A
O567       Zr570   2.430       .  S
O567        C580   1.290       .  A
O568       Zr574   2.434       .  S
O568        C577   1.291       .  A
O569       Zr574   2.431       .  S
O569        C578   1.291       .  A
Zr570       O576   2.335       .  S
Zr570       O588   2.351       .  S
Zr571       O575   2.341       .  S
Zr571       O586   2.344       .  S
Zr572       O576   2.333       .  S
Zr572       O586   2.335       .  S
Zr573       O575   2.345       .  S
Zr573       O588   2.340       .  S
Zr574       O575   2.344       .  S
Zr574       O576   2.338       .  S
Zr574       O588   2.336       .  S
Zr574       O586   2.346       .  S
C577        C853   1.462       .  S
C578        C981   1.482       .  S
C579       C1726   1.469       .  S
C580        C885   1.471       .  S
C581       C4126   1.474       .  S
C582       C4222   1.485       .  S
C583       C1054   1.488       .  S
C584       C4030   1.479       .  S
H585        O586   0.965       .  S
H587        O588   0.965       .  S
C589        N590   1.354       .  A
C589        N594   1.357       .  A
C589       C2014   1.471       .  S
N590        C591   1.353       .  A
C591        N592   1.357       .  A
C591        C830   1.476       .  S
N592        C593   1.357       .  A
C593        N594   1.358       .  A
C593       C1246   1.477       .  S
C595        N596   1.360       .  A
C595        N600   1.359       .  A
C595       C2046   1.489       .  S
N596        C597   1.356       .  A
C597        N598   1.354       .  A
C597        C926   1.479       .  S
N598        C599   1.353       .  A
C599        N600   1.358       .  A
C599        C798   1.479       .  S
C601        N602   1.356       .  A
C601        N606   1.356       .  A
C601        C757   1.481       .  S
N602        C603   1.354       .  A
C603        N604   1.355       .  A
C603        C862   1.468       .  S
N604        C605   1.356       .  A
C605        N606   1.356       .  A
C605       C2238   1.473       .  S
C607        N608   1.358       .  A
C607        N612   1.354       .  A
C607        C894   1.484       .  S
N608        C609   1.358       .  A
C609        N610   1.362       .  A
C609       C1310   1.496       .  S
N610        C611   1.359       .  A
C611        N612   1.354       .  A
C611        C734   1.472       .  S
O613       Zr649   2.432       .  S
O613        C624   1.290       .  A
O614       Zr648   2.439       .  S
O614        C625   1.292       .  A
O615       Zr621   2.417       .  S
O615        C626   1.288       .  A
O616       Zr621   2.439       .  S
O616        C627   1.291       .  A
O617       Zr651   2.429       .  S
O617        C627   1.292       .  A
O618       Zr650   2.441       .  S
O618        C626   1.292       .  A
O619       Zr621   2.431       .  S
O619        C625   1.290       .  A
O620       Zr621   2.411       .  S
O620        C624   1.287       .  A
Zr621       O622   2.319       .  S
Zr621       O623   2.329       .  S
Zr621       O631   2.338       .  S
Zr621       O629   2.340       .  S
O622       Zr648   2.330       .  S
O622       Zr651   2.340       .  S
O623       Zr649   2.330       .  S
O623       Zr650   2.330       .  S
C624       C4341   1.462       .  S
C625       C3157   1.473       .  S
C626       C3253   1.467       .  S
C627       C1086   1.486       .  S
H628        O629   0.966       .  S
O629       Zr648   2.332       .  S
O629       Zr650   2.338       .  S
H630        O631   0.964       .  S
O631       Zr649   2.348       .  S
O631       Zr651   2.333       .  S
O632       Zr648   2.415       .  S
O632        C655   1.289       .  A
O633       Zr649   2.441       .  S
O633        C656   1.292       .  A
O634       Zr650   2.449       .  S
O634        C657   1.294       .  A
O635       Zr651   2.441       .  S
O635        C658   1.293       .  A
O636       Zr651   2.457       .  S
O636        C659   1.295       .  A
O637       Zr650   2.430       .  S
O637        C660   1.292       .  A
O638       Zr652   2.445       .  S
O638        C661   1.294       .  A
O639       Zr652   2.432       .  S
O639        C662   1.291       .  A
O640       Zr650   2.431       .  S
O640        C661   1.291       .  A
O641       Zr651   2.439       .  S
O641        C662   1.292       .  A
O642       Zr648   2.438       .  S
O642        C657   1.292       .  A
O643       Zr649   2.437       .  S
O643        C660   1.291       .  A
O644       Zr649   2.431       .  S
O644        C659   1.291       .  A
O645       Zr648   2.426       .  S
O645        C658   1.290       .  A
O646       Zr652   2.433       .  S
O646        C655   1.291       .  A
O647       Zr652   2.424       .  S
O647        C656   1.290       .  A
Zr648       O654   2.339       .  S
Zr648       O666   2.351       .  S
Zr649       O653   2.328       .  S
Zr649       O664   2.346       .  S
Zr650       O654   2.336       .  S
Zr650       O664   2.354       .  S
Zr651       O653   2.328       .  S
Zr651       O666   2.342       .  S
Zr652       O653   2.334       .  S
Zr652       O654   2.336       .  S
Zr652       O666   2.346       .  S
Zr652       O664   2.350       .  S
C655        C766   1.466       .  S
C656        C789   1.478       .  S
C657        C725   1.483       .  S
C658       C1150   1.470       .  S
C659       C4245   1.489       .  S
C660       C3486   1.475       .  S
C661       C3422   1.478       .  S
C662        C821   1.470       .  S
H663        O664   0.966       .  S
H665        O666   0.966       .  S
O667       Zr703   2.451       .  S
O667        C678   1.294       .  A
O668       Zr702   2.435       .  S
O668        C679   1.291       .  A
O669       Zr675   2.427       .  S
O669        C680   1.291       .  A
O670       Zr675   2.440       .  S
O670        C681   1.292       .  A
O671       Zr705   2.431       .  S
O671        C681   1.290       .  A
O672       Zr704   2.441       .  S
O672        C680   1.292       .  A
O673       Zr675   2.427       .  S
O673        C679   1.290       .  A
O674       Zr675   2.412       .  S
O674        C678   1.287       .  A
Zr675       O676   2.324       .  S
Zr675       O677   2.339       .  S
Zr675       O685   2.341       .  S
Zr675       O683   2.341       .  S
O676       Zr702   2.333       .  S
O676       Zr705   2.344       .  S
O677       Zr703   2.342       .  S
O677       Zr704   2.343       .  S
C678       C3605   1.462       .  S
C679       C2645   1.469       .  S
C680       C2718   1.489       .  S
C681       C2526   1.474       .  S
H682        O683   0.964       .  S
O683       Zr702   2.335       .  S
O683       Zr704   2.342       .  S
H684        O685   0.966       .  S
O685       Zr703   2.340       .  S
O685       Zr705   2.325       .  S
O686       Zr702   2.410       .  S
O686        C709   1.288       .  A
O687       Zr703   2.451       .  S
O687        C710   1.294       .  A
O688       Zr704   2.457       .  S
O688        C711   1.296       .  A
O689       Zr705   2.421       .  S
O689        C712   1.288       .  A
O690       Zr705   2.447       .  S
O690        C713   1.293       .  A
O691       Zr704   2.431       .  S
O691        C714   1.291       .  A
O692       Zr706   2.450       .  S
O692        C715   1.294       .  A
O693       Zr706   2.430       .  S
O693        C716   1.290       .  A
O694       Zr704   2.436       .  S
O694        C715   1.291       .  A
O695       Zr705   2.436       .  S
O695        C716   1.291       .  A
O696       Zr702   2.449       .  S
O696        C711   1.294       .  A
O697       Zr703   2.431       .  S
O697        C714   1.291       .  A
O698       Zr703   2.426       .  S
O698        C713   1.289       .  A
O699       Zr702   2.433       .  S
O699        C712   1.292       .  A
O700       Zr706   2.433       .  S
O700        C709   1.291       .  A
O701       Zr706   2.436       .  S
O701        C710   1.291       .  A
Zr702       O708   2.338       .  S
Zr702       O720   2.347       .  S
Zr703       O707   2.335       .  S
Zr703       O718   2.345       .  S
Zr704       O708   2.332       .  S
Zr704       O718   2.349       .  S
Zr705       O707   2.333       .  S
Zr705       O720   2.341       .  S
Zr706       O707   2.338       .  S
Zr706       O708   2.337       .  S
Zr706       O720   2.343       .  S
Zr706       O718   2.338       .  S
C709       C2293   1.465       .  S
C710        C949   1.488       .  S
C711       C2206   1.487       .  S
C712       C2622   1.475       .  S
C713       C3541   1.474       .  S
C714       C3358   1.465       .  S
C715       C3285   1.482       .  S
C716       C1022   1.468       .  S
H717        O718   0.966       .  S
H719        O720   0.965       .  S
C721        C722   1.403       .  A
C721        C726   1.407       .  A
C721        H731   1.084       .  S
C722        C727   1.484       .  S
C722        C723   1.411       .  A
C723        C724   1.403       .  A
C723        C728   1.507       .  S
C724        C725   1.406       .  A
C724        H729   1.084       .  S
C725        C726   1.416       .  A
C726        C730   1.507       .  S
C727        C732   1.412       .  A
C727        C736   1.404       .  A
C728        H744   1.109       .  S
C728        H745   1.110       .  S
C728        H746   1.111       .  S
C730        H741   1.111       .  S
C730        H742   1.109       .  S
C730        H743   1.111       .  S
C732        C733   1.403       .  A
C732        C737   1.506       .  S
C733        C734   1.402       .  A
C733        H738   1.084       .  S
C734        C735   1.412       .  A
C735        C736   1.405       .  A
C735        C739   1.507       .  S
C736        H740   1.084       .  S
C737        H747   1.111       .  S
C737        H748   1.109       .  S
C737        H749   1.110       .  S
C739        H750   1.109       .  S
C739        H751   1.111       .  S
C739        H752   1.111       .  S
C753        C754   1.399       .  A
C753        C758   1.401       .  A
C753        H763   1.084       .  S
C754        C759   1.472       .  S
C754        C755   1.408       .  A
C755        C756   1.398       .  A
C755        C760   1.508       .  S
C756        C757   1.408       .  A
C756        H761   1.084       .  S
C757        C758   1.419       .  A
C758        C762   1.508       .  S
C759        C764   1.409       .  A
C759        C768   1.402       .  A
C760        H776   1.109       .  S
C760        H777   1.110       .  S
C760        H778   1.111       .  S
C762        H773   1.110       .  S
C762        H774   1.111       .  S
C762        H775   1.109       .  S
C764        C765   1.396       .  A
C764        C769   1.508       .  S
C765        C766   1.404       .  A
C765        H770   1.085       .  S
C766        C767   1.412       .  A
C767        C768   1.401       .  A
C767        C771   1.508       .  S
C768        H772   1.084       .  S
C769        H779   1.111       .  S
C769        H780   1.109       .  S
C769        H781   1.110       .  S
C771        H782   1.111       .  S
C771        H783   1.109       .  S
C771        H784   1.111       .  S
C785        C786   1.402       .  A
C785        C790   1.404       .  A
C785        H795   1.084       .  S
C786        C791   1.476       .  S
C786        C787   1.409       .  A
C787        C788   1.401       .  A
C787        C792   1.509       .  S
C788        C789   1.408       .  A
C788        H793   1.085       .  S
C789        C790   1.415       .  A
C790        C794   1.507       .  S
C791        C796   1.410       .  A
C791        C800   1.399       .  A
C792        H808   1.110       .  S
C792        H809   1.109       .  S
C792        H810   1.111       .  S
C794        H805   1.110       .  S
C794        H806   1.111       .  S
C794        H807   1.110       .  S
C796        C797   1.401       .  A
C796        C801   1.507       .  S
C797        C798   1.404       .  A
C797        H802   1.084       .  S
C798        C799   1.420       .  A
C799        C800   1.403       .  A
C799        C803   1.509       .  S
C800        H804   1.084       .  S
C801        H811   1.111       .  S
C801        H812   1.110       .  S
C801        H813   1.109       .  S
C803        H814   1.109       .  S
C803        H815   1.110       .  S
C803        H816   1.111       .  S
C817        C818   1.401       .  A
C817        C822   1.402       .  A
C817        H827   1.085       .  S
C818        C823   1.477       .  S
C818        C819   1.410       .  A
C819        C820   1.401       .  A
C819        C824   1.508       .  S
C820        C821   1.403       .  A
C820        H825   1.085       .  S
C821        C822   1.415       .  A
C822        C826   1.509       .  S
C823        C828   1.411       .  A
C823        C832   1.399       .  A
C824        H840   1.110       .  S
C824        H841   1.110       .  S
C824        H842   1.111       .  S
C826        H837   1.110       .  S
C826        H838   1.111       .  S
C826        H839   1.107       .  S
C828        C829   1.400       .  A
C828        C833   1.507       .  S
C829        C830   1.404       .  A
C829        H834   1.083       .  S
C830        C831   1.417       .  A
C831        C832   1.402       .  A
C831        C835   1.508       .  S
C832        H836   1.084       .  S
C833        H843   1.111       .  S
C833        H844   1.110       .  S
C833        H845   1.110       .  S
C835        H846   1.111       .  S
C835        H847   1.109       .  S
C835        H848   1.111       .  S
C849        C850   1.402       .  A
C849        C854   1.401       .  A
C849        H859   1.084       .  S
C850        C855   1.472       .  S
C850        C851   1.410       .  A
C851        C852   1.399       .  A
C851        C856   1.508       .  S
C852        C853   1.401       .  A
C852        H857   1.085       .  S
C853        C854   1.411       .  A
C854        C858   1.508       .  S
C855        C860   1.409       .  A
C855        C864   1.400       .  A
C856        H872   1.110       .  S
C856        H873   1.109       .  S
C856        H874   1.111       .  S
C858        H869   1.110       .  S
C858        H870   1.111       .  S
C858        H871   1.110       .  S
C860        C861   1.400       .  A
C860        C865   1.507       .  S
C861        C862   1.402       .  A
C861        H866   1.084       .  S
C862        C863   1.413       .  A
C863        C864   1.401       .  A
C863        C867   1.508       .  S
C864        H868   1.084       .  S
C865        H875   1.111       .  S
C865        H876   1.110       .  S
C865        H877   1.109       .  S
C867        H878   1.111       .  S
C867        H879   1.109       .  S
C867        H880   1.110       .  S
C881        C882   1.401       .  A
C881        C886   1.402       .  A
C881        H891   1.084       .  S
C882        C887   1.474       .  S
C882        C883   1.410       .  A
C883        C884   1.399       .  A
C883        C888   1.508       .  S
C884        C885   1.403       .  A
C884        H889   1.085       .  S
C885        C886   1.414       .  A
C886        C890   1.507       .  S
C887        C892   1.408       .  A
C887        C896   1.398       .  A
C888        H904   1.110       .  S
C888        H905   1.108       .  S
C888        H906   1.111       .  S
C890        H901   1.111       .  S
C890        H902   1.109       .  S
C890        H903   1.110       .  S
C892        C893   1.401       .  A
C892        C897   1.508       .  S
C893        C894   1.407       .  A
C893        H898   1.083       .  S
C894        C895   1.421       .  A
C895        C896   1.402       .  A
C895        C899   1.509       .  S
C896        H900   1.085       .  S
C897        H907   1.111       .  S
C897        H908   1.110       .  S
C897        H909   1.108       .  S
C899        H910   1.111       .  S
C899        H911   1.110       .  S
C899        H912   1.110       .  S
C913        C914   1.397       .  A
C913        C918   1.400       .  A
C913        H923   1.084       .  S
C914        C919   1.476   1_554  S
C914        C915   1.412       .  A
C915        C916   1.407       .  A
C915        C920   1.507       .  S
C916        C917   1.405       .  A
C916        H921   1.084       .  S
C917        C918   1.415       .  A
C918        C922   1.508       .  S
C919        C924   1.408       .  A
C919        C928   1.401       .  A
C920        H936   1.110   1_554  S
C920        H937   1.109   1_554  S
C920        H938   1.111       .  S
C922        H933   1.111       .  S
C922        H934   1.109       .  S
C922        H935   1.111       .  S
C924        C925   1.400       .  A
C924        C929   1.507       .  S
C925        C926   1.406       .  A
C925        H930   1.084       .  S
C926        C927   1.417       .  A
C927        C928   1.403       .  A
C927        C931   1.508       .  S
C928        H932   1.084       .  S
C929        H939   1.111       .  S
C929        H940   1.110       .  S
C929        H941   1.109       .  S
C931        H942   1.111       .  S
C931        H943   1.110       .  S
C931        H944   1.110       .  S
C945        C946   1.397       .  A
C945        C950   1.403       .  A
C945        H955   1.084       .  S
C946        C951   1.484       .  S
C946        C947   1.412       .  A
C947        C948   1.408       .  A
C947        C952   1.506       .  S
C948        C949   1.407       .  A
C948        H953   1.084       .  S
C949        C950   1.421       .  A
C950        C954   1.509       .  S
C951        C956   1.410       .  A
C951        C960   1.402       .  A
C952        H968   1.110       .  S
C952        H969   1.110       .  S
C952        H970   1.111       .  S
C954        H965   1.110       .  S
C954        H966   1.111       .  S
C954        H967   1.109       .  S
C956        C957   1.404       .  A
C956        C961   1.507       .  S
C957        C958   1.405       .  A
C957        H962   1.084       .  S
C958        C959   1.418       .  A
C959        C960   1.406       .  A
C959        C963   1.506       .  S
C960        H964   1.084       .  S
C961        H971   1.111       .  S
C961        H972   1.110       .  S
C961        H973   1.110       .  S
C963        H974   1.110       .  S
C963        H975   1.105       .  S
C963        H976   1.110       .  S
C977        C978   1.404       .  A
C977        C982   1.409       .  A
C977        H987   1.084       .  S
C978        C983   1.484       .  S
C978        C979   1.410       .  A
C979        C980   1.401       .  A
C979        C984   1.508       .  S
C980        C981   1.406       .  A
C980        H985   1.085       .  S
C981        C982   1.414       .  A
C982        C986   1.506       .  S
C983        C988   1.409       .  A
C983        C992   1.400       .  A
C984       H1000   1.110       .  S
C984       H1001   1.110       .  S
C984       H1002   1.111       .  S
C986        H997   1.109       .  S
C986        H998   1.111       .  S
C986        H999   1.111       .  S
C988        C989   1.404       .  A
C988        C993   1.507       .  S
C989        C990   1.407       .  A
C989        H994   1.084       .  S
C990        C991   1.420       .  A
C991        C992   1.407       .  A
C991        C995   1.505       .  S
C992        H996   1.084       .  S
C993       H1003   1.111       .  S
C993       H1004   1.110       .  S
C993       H1005   1.110       .  S
C995       H1006   1.110       .  S
C995       H1007   1.109       .  S
C995       H1008   1.111       .  S
C1009      C1010   1.398       .  A
C1009      C1014   1.406       .  A
C1009      H1019   1.084       .  S
C1010      C1015   1.475       .  S
C1010      C1011   1.404       .  A
C1011      C1012   1.398       .  A
C1011      C1016   1.507       .  S
C1012      C1013   1.410       .  A
C1012      H1017   1.083       .  S
C1013      C1014   1.427       .  A
C1014      C1018   1.509       .  S
C1015      C1020   1.411       .  A
C1015      C1024   1.398       .  A
C1016      H1032   1.110       .  S
C1016      H1033   1.110       .  S
C1016      H1034   1.111       .  S
C1018      H1029   1.110       .  S
C1018      H1030   1.111       .  S
C1018      H1031   1.110       .  S
C1020      C1021   1.406       .  A
C1020      C1025   1.506       .  S
C1021      C1022   1.404       .  A
C1021      H1026   1.084       .  S
C1022      C1023   1.413       .  A
C1023      C1024   1.397       .  A
C1023      C1027   1.509       .  S
C1024      H1028   1.084       .  S
C1025      H1035   1.111       .  S
C1025      H1036   1.110       .  S
C1025      H1037   1.110       .  S
C1027      H1038   1.108       .  S
C1027      H1039   1.111       .  S
C1027      H1040   1.111       .  S
C1041      C1042   1.400       .  A
C1041      C1046   1.399       .  A
C1041      H1051   1.085       .  S
C1042      C1047   1.474       .  S
C1042      C1043   1.411       .  A
C1043      C1044   1.403       .  A
C1043      C1048   1.507       .  S
C1044      C1045   1.401       .  A
C1044      H1049   1.084       .  S
C1045      C1046   1.414       .  A
C1046      C1050   1.510       .  S
C1047      C1052   1.407       .  A
C1047      C1056   1.397       .  A
C1048      H1064   1.110       .  S
C1048      H1065   1.110       .  S
C1048      H1066   1.110       .  S
C1050      H1061   1.110       .  S
C1050      H1062   1.110       .  S
C1050      H1063   1.108       .  S
C1052      C1053   1.402       .  A
C1052      C1057   1.507       .  S
C1053      C1054   1.410       .  A
C1053      H1058   1.084       .  S
C1054      C1055   1.422       .  A
C1055      C1056   1.401       .  A
C1055      C1059   1.509       .  S
C1056      H1060   1.084       .  S
C1057      H1067   1.111       .  S
C1057      H1068   1.110       .  S
C1057      H1069   1.110       .  S
C1059      H1070   1.109       .  S
C1059      H1071   1.109       .  S
C1059      H1072   1.111       .  S
C1073      C1074   1.401       .  A
C1073      C1078   1.403       .  A
C1073      H1083   1.085       .  S
C1074      C1079   1.478       .  S
C1074      C1075   1.407       .  A
C1075      C1076   1.402       .  A
C1075      C1080   1.506       .  S
C1076      C1077   1.407       .  A
C1076      H1081   1.084       .  S
C1077      C1078   1.418       .  A
C1078      C1082   1.505       .  S
C1079      C1084   1.406       .  A
C1079      C1088   1.401       .  A
C1080      H1096   1.110       .  S
C1080      H1097   1.110       .  S
C1080      H1098   1.111       .  S
C1082      H1093   1.110       .  S
C1082      H1094   1.111       .  S
C1082      H1095   1.102       .  S
C1084      C1085   1.398       .  A
C1084      C1089   1.507       .  S
C1085      C1086   1.406       .  A
C1085      H1090   1.077       .  S
C1086      C1087   1.420       .  A
C1087      C1088   1.406       .  A
C1087      C1091   1.509       .  S
C1088      H1092   1.084       .  S
C1089      H1099   1.111       .  S
C1089      H1100   1.110       .  S
C1089      H1101   1.111       .  S
C1091      H1102   1.111       .  S
C1091      H1103   1.111       .  S
C1091      H1104   1.110       .  S
C1105      C1106   1.402       .  A
C1105      C1110   1.408       .  A
C1105      H1115   1.084       .  S
C1106      C1111   1.484       .  S
C1106      C1107   1.411       .  A
C1107      C1108   1.403       .  A
C1107      C1112   1.507       .  S
C1108      C1109   1.402       .  A
C1108      H1113   1.079       .  S
C1109      C1110   1.417       .  A
C1110      C1114   1.508       .  S
C1111      C1116   1.408       .  A
C1111      C1120   1.401       .  A
C1112      H1128   1.110       .  S
C1112      H1129   1.109       .  S
C1112      H1130   1.109       .  S
C1114      H1125   1.111       .  S
C1114      H1126   1.109       .  S
C1114      H1127   1.111       .  S
C1116      C1117   1.405       .  A
C1116      C1121   1.506       .  S
C1117      C1118   1.408       .  A
C1117      H1122   1.084       .  S
C1118      C1119   1.419       .  A
C1119      C1120   1.407       .  A
C1119      C1123   1.504       .  S
C1120      H1124   1.084       .  S
C1121      H1131   1.111       .  S
C1121      H1132   1.110       .  S
C1121      H1133   1.110       .  S
C1123      H1134   1.109       .  S
C1123      H1135   1.109       .  S
C1123      H1136   1.111       .  S
C1137      C1138   1.402       .  A
C1137      C1142   1.403       .  A
C1137      H1147   1.084       .  S
C1138      C1143   1.478       .  S
C1138      C1139   1.409       .  A
C1139      C1140   1.400       .  A
C1139      C1144   1.507       .  S
C1140      C1141   1.406       .  A
C1140      H1145   1.084       .  S
C1141      C1142   1.416       .  A
C1142      C1146   1.508       .  S
C1143      C1148   1.411       .  A
C1143      C1152   1.403       .  A
C1144      H1160   1.109       .  S
C1144      H1161   1.110       .  S
C1144      H1162   1.111       .  S
C1146      H1157   1.111       .  S
C1146      H1158   1.109       .  S
C1146      H1159   1.111       .  S
C1148      C1149   1.401       .  A
C1148      C1153   1.508       .  S
C1149      C1150   1.403       .  A
C1149      H1154   1.084       .  S
C1150      C1151   1.411       .  A
C1151      C1152   1.403       .  A
C1151      C1155   1.508       .  S
C1152      H1156   1.084       .  S
C1153      H1163   1.109       .  S
C1153      H1164   1.109       .  S
C1153      H1165   1.111       .  S
C1155      H1166   1.109       .  S
C1155      H1167   1.111       .  S
C1155      H1168   1.110       .  S
C1169      C1170   1.394       .  A
C1169      C1174   1.397       .  A
C1169      H1179   1.085       .  S
C1170      C1175   1.468       .  S
C1170      C1171   1.408       .  A
C1171      C1172   1.403       .  A
C1171      C1176   1.507       .  S
C1172      C1173   1.406       .  A
C1172      H1177   1.084       .  S
C1173      C1174   1.419       .  A
C1174      C1178   1.506       .  S
C1175      C1180   1.408       .  A
C1175      C1184   1.399       .  A
C1176      H1192   1.110       .  S
C1176      H1193   1.110       .  S
C1176      H1194   1.111       .  S
C1178      H1189   1.107       .  S
C1178      H1190   1.111       .  S
C1178      H1191   1.111       .  S
C1180      C1181   1.397       .  A
C1180      C1185   1.508       .  S
C1181      C1182   1.405       .  A
C1181      H1186   1.085       .  S
C1182      C1183   1.416       .  A
C1183      C1184   1.402       .  A
C1183      C1187   1.507       .  S
C1184      H1188   1.084       .  S
C1185      H1195   1.111       .  S
C1185      H1196   1.110       .  S
C1185      H1197   1.110       .  S
C1187      H1198   1.111       .  S
C1187      H1199   1.110       .  S
C1187      H1200   1.109       .  S
C1201      C1202   1.402       .  A
C1201      C1206   1.403       .  A
C1201      H1211   1.084       .  S
C1202      C1207   1.487       .  S
C1202      C1203   1.413       .  A
C1203      C1204   1.406       .  A
C1203      C1208   1.507       .  S
C1204      C1205   1.404       .  A
C1204      H1209   1.084       .  S
C1205      C1206   1.415       .  A
C1206      C1210   1.508       .  S
C1207      C1212   1.411       .  A
C1207      C1216   1.402       .  A
C1208      H1224   1.109       .  S
C1208      H1225   1.110       .  S
C1208      H1226   1.111       .  S
C1210      H1221   1.110       .  S
C1210      H1222   1.110       .  S
C1210      H1223   1.108       .  S
C1212      C1213   1.406       .  A
C1212      C1217   1.507       .  S
C1213      C1214   1.407       .  A
C1213      H1218   1.084       .  S
C1214      C1215   1.418       .  A
C1215      C1216   1.406       .  A
C1215      C1219   1.508       .  S
C1216      H1220   1.084       .  S
C1217      H1227   1.111       .  S
C1217      H1228   1.109       .  S
C1217      H1229   1.111       .  S
C1219      H1230   1.109       .  S
C1219      H1231   1.111       .  S
C1219      H1232   1.111       .  S
C1233      C1234   1.399       .  A
C1233      C1238   1.399       .  A
C1233      H1243   1.084       .  S
C1234      C1239   1.473       .  S
C1234      C1235   1.408       .  A
C1235      C1236   1.400       .  A
C1235      C1240   1.507       .  S
C1236      C1237   1.405       .  A
C1236      H1241   1.084       .  S
C1237      C1238   1.418       .  A
C1238      C1242   1.509       .  S
C1239      C1244   1.409       .  A
C1239      C1248   1.398       .  A
C1240      H1256   1.109       .  S
C1240      H1257   1.110       .  S
C1240      H1258   1.111       .  S
C1242      H1253   1.109       .  S
C1242      H1254   1.111       .  S
C1242      H1255   1.111       .  S
C1244      C1245   1.403       .  A
C1244      C1249   1.507       .  S
C1245      C1246   1.407       .  A
C1245      H1250   1.084       .  S
C1246      C1247   1.416       .  A
C1247      C1248   1.398       .  A
C1247      C1251   1.508       .  S
C1248      H1252   1.085       .  S
C1249      H1259   1.111       .  S
C1249      H1260   1.109       .  S
C1249      H1261   1.111       .  S
C1251      H1262   1.111       .  S
C1251      H1263   1.110       .  S
C1251      H1264   1.109       .  S
C1265      C1266   1.400       .  A
C1265      C1270   1.400       .  A
C1265      H1275   1.084       .  S
C1266      C1271   1.470       .  S
C1266      C1267   1.409       .  A
C1267      C1268   1.400       .  A
C1267      C1272   1.507       .  S
C1268      C1269   1.401       .  A
C1268      H1273   1.084       .  S
C1269      C1270   1.411       .  A
C1270      C1274   1.507       .  S
C1271      C1276   1.408       .  A
C1271      C1280   1.400       .  A
C1272      H1288   1.110       .  S
C1272      H1289   1.110       .  S
C1272      H1290   1.111       .  S
C1274      H1285   1.111       .  S
C1274      H1286   1.109       .  S
C1274      H1287   1.111       .  S
C1276      C1277   1.398       .  A
C1276      C1281   1.507       .  S
C1277      C1278   1.403       .  A
C1277      H1282   1.083       .  S
C1278      C1279   1.416       .  A
C1279      C1280   1.400       .  A
C1279      C1283   1.509       .  S
C1280      H1284   1.084       .  S
C1281      H1291   1.111       .  S
C1281      H1292   1.110       .  S
C1281      H1293   1.110       .  S
C1283      H1294   1.111       .  S
C1283      H1295   1.109       .  S
C1283      H1296   1.110       .  S
C1297      C1298   1.402       .  A
C1297      C1302   1.404       .  A
C1297      H1307   1.084       .  S
C1298      C1303   1.482       .  S
C1298      C1299   1.412       .  A
C1299      C1300   1.403       .  A
C1299      C1304   1.506       .  S
C1300      C1301   1.402       .  A
C1300      H1305   1.084       .  S
C1301      C1302   1.414       .  A
C1302      C1306   1.507       .  S
C1303      C1308   1.409       .  A
C1303      C1312   1.398       .  A
C1304      H1320   1.109       .  S
C1304      H1321   1.110       .  S
C1304      H1322   1.111       .  S
C1306      H1317   1.109       .  S
C1306      H1318   1.111       .  S
C1306      H1319   1.110       .  S
C1308      C1309   1.404   1_565  A
C1308      C1313   1.507       .  S
C1309      C1310   1.410       .  A
C1309      H1314   1.083       .  S
C1310      C1311   1.425       .  A
C1311      C1312   1.404   1_545  A
C1311      C1315   1.508       .  S
C1312      H1316   1.084       .  S
C1313      H1323   1.111       .  S
C1313      H1324   1.110       .  S
C1313      H1325   1.110       .  S
C1315      H1326   1.111       .  S
C1315      H1327   1.110       .  S
C1315      H1328   1.109       .  S
C1329      C1330   1.400       .  A
C1329      C1334   1.400       .  A
C1329      H1339   1.084       .  S
C1330      C1335   1.477       .  S
C1330      C1331   1.411       .  A
C1331      C1332   1.404       .  A
C1331      C1336   1.507       .  S
C1332      C1333   1.403       .  A
C1332      H1337   1.084       .  S
C1333      C1334   1.413       .  A
C1334      C1338   1.508       .  S
C1335      C1340   1.407       .  A
C1335      C1344   1.402       .  A
C1336      H1352   1.110       .  S
C1336      H1353   1.110       .  S
C1336      H1354   1.111       .  S
C1338      H1349   1.111       .  S
C1338      H1350   1.110       .  S
C1338      H1351   1.109       .  S
C1340      C1341   1.400       .  A
C1340      C1345   1.507       .  S
C1341      C1342   1.407       .  A
C1341      H1346   1.084       .  S
C1342      C1343   1.417       .  A
C1343      C1344   1.405       .  A
C1343      C1347   1.506       .  S
C1344      H1348   1.084       .  S
C1345      H1355   1.111       .  S
C1345      H1356   1.110       .  S
C1345      H1357   1.110       .  S
C1347      H1358   1.109       .  S
C1347      H1359   1.109       .  S
C1347      H1360   1.111       .  S
C1361      C1362   1.400       .  A
C1361      C1366   1.400       .  A
C1361      H1371   1.085       .  S
C1362      C1367   1.470       .  S
C1362      C1363   1.410       .  A
C1363      C1364   1.399       .  A
C1363      C1368   1.507       .  S
C1364      C1365   1.399       .  A
C1364      H1369   1.085       .  S
C1365      C1366   1.415       .  A
C1366      C1370   1.510       .  S
C1367      C1372   1.407       .  A
C1367      C1376   1.400       .  A
C1368      H1384   1.111       .  S
C1368      H1385   1.109       .  S
C1368      H1386   1.111       .  S
C1370      H1381   1.110       .  S
C1370      H1382   1.111       .  S
C1370      H1383   1.108       .  S
C1372      C1373   1.397       .  A
C1372      C1377   1.507       .  S
C1373      C1374   1.404       .  A
C1373      H1378   1.084       .  S
C1374      C1375   1.415       .  A
C1375      C1376   1.403       .  A
C1375      C1379   1.507       .  S
C1376      H1380   1.084       .  S
C1377      H1387   1.111       .  S
C1377      H1388   1.110       .  S
C1377      H1389   1.109       .  S
C1379      H1390   1.109       .  S
C1379      H1391   1.110       .  S
C1379      H1392   1.111       .  S
C1393      C1394   1.396       .  A
C1393      C1398   1.400       .  A
C1393      H1403   1.085       .  S
C1394      C1399   1.469       .  S
C1394      C1395   1.407       .  A
C1395      C1396   1.399       .  A
C1395      C1400   1.507       .  S
C1396      C1397   1.408       .  A
C1396      H1401   1.083       .  S
C1397      C1398   1.423       .  A
C1398      C1402   1.510       .  S
C1399      C1404   1.408       .  A
C1399      C1408   1.397       .  A
C1400      H1416   1.110       .  S
C1400      H1417   1.110       .  S
C1400      H1418   1.111       .  S
C1402      H1413   1.111       .  S
C1402      H1414   1.110       .  S
C1402      H1415   1.110       .  S
C1404      C1405   1.401       .  A
C1404      C1409   1.507       .  S
C1405      C1406   1.406       .  A
C1405      H1410   1.084       .  S
C1406      C1407   1.415       .  A
C1407      C1408   1.397       .  A
C1407      C1411   1.508       .  S
C1408      H1412   1.084       .  S
C1409      H1419   1.111       .  S
C1409      H1420   1.110       .  S
C1409      H1421   1.111       .  S
C1411      H1422   1.109       .  S
C1411      H1423   1.111       .  S
C1411      H1424   1.111       .  S
C1425      C1426   1.400       .  A
C1425      C1430   1.404       .  A
C1425      H1435   1.084       .  S
C1426      C1431   1.477       .  S
C1426      C1427   1.411       .  A
C1427      C1428   1.401       .  A
C1427      C1432   1.507       .  S
C1428      C1429   1.402       .  A
C1428      H1433   1.084       .  S
C1429      C1430   1.415       .  A
C1430      C1434   1.506       .  S
C1431      C1436   1.408       .  A
C1431      C1440   1.398       .  A
C1432      H1448   1.110       .  S
C1432      H1449   1.110       .  S
C1432      H1450   1.111       .  S
C1434      H1445   1.109       .  S
C1434      H1446   1.111       .  S
C1434      H1447   1.108       .  S
C1436      C1437   1.403       .  A
C1436      C1441   1.507       .  S
C1437      C1438   1.407       .  A
C1437      H1442   1.084       .  S
C1438      C1439   1.420       .  A
C1439      C1440   1.403       .  A
C1439      C1443   1.508       .  S
C1440      H1444   1.084       .  S
C1441      H1451   1.111       .  S
C1441      H1452   1.110       .  S
C1441      H1453   1.110       .  S
C1443      H1454   1.110       .  S
C1443      H1455   1.109       .  S
C1443      H1456   1.111       .  S
C1457      C1458   1.400       .  A
C1457      C1462   1.406       .  A
C1457      H1467   1.084       .  S
C1458      C1463   1.486   1_554  S
C1458      C1459   1.410       .  A
C1459      C1460   1.404       .  A
C1459      C1464   1.507       .  S
C1460      C1461   1.408       .  A
C1460      H1465   1.083       .  S
C1461      C1462   1.423       .  A
C1462      C1466   1.508       .  S
C1463      C1468   1.412       .  A
C1463      C1472   1.401       .  A
C1464      H1480   1.110   1_554  S
C1464      H1481   1.110   1_554  S
C1464      H1482   1.111       .  S
C1466      H1477   1.109       .  S
C1466      H1478   1.111       .  S
C1466      H1479   1.110       .  S
C1468      C1469   1.405       .  A
C1468      C1473   1.507       .  S
C1469      C1470   1.405       .  A
C1469      H1474   1.084       .  S
C1470      C1471   1.418       .  A
C1471      C1472   1.406       .  A
C1471      C1475   1.507       .  S
C1472      H1476   1.084       .  S
C1473      H1483   1.111       .  S
C1473      H1484   1.109       .  S
C1473      H1485   1.111       .  S
C1475      H1486   1.111       .  S
C1475      H1487   1.110       .  S
C1475      H1488   1.109       .  S
C1489      C1490   1.398       .  A
C1489      C1494   1.403       .  A
C1489      H1499   1.084       .  S
C1490      C1495   1.478       .  S
C1490      C1491   1.408       .  A
C1491      C1492   1.401       .  A
C1491      C1496   1.508       .  S
C1492      C1493   1.411       .  A
C1492      H1497   1.083       .  S
C1493      C1494   1.423       .  A
C1494      C1498   1.508       .  S
C1495      C1500   1.411       .  A
C1495      C1504   1.404       .  A
C1496      H1512   1.109       .  S
C1496      H1513   1.111       .  S
C1496      H1514   1.111       .  S
C1498      H1509   1.110       .  S
C1498      H1510   1.111       .  S
C1498      H1511   1.110       .  S
C1500      C1501   1.397       .  A
C1500      C1505   1.508       .  S
C1501      C1502   1.401       .  A
C1501      H1506   1.085       .  S
C1502      C1503   1.414       .  A
C1503      C1504   1.405       .  A
C1503      C1507   1.508       .  S
C1504      H1508   1.084       .  S
C1505      H1515   1.111       .  S
C1505      H1516   1.109       .  S
C1505      H1517   1.110       .  S
C1507      H1518   1.111       .  S
C1507      H1519   1.111       .  S
C1507      H1520   1.109       .  S
C1521      C1522   1.400       .  A
C1521      C1526   1.400       .  A
C1521      H1531   1.084       .  S
C1522      C1527   1.479       .  S
C1522      C1523   1.409       .  A
C1523      C1524   1.402       .  A
C1523      C1528   1.507       .  S
C1524      C1525   1.408       .  A
C1524      H1529   1.084       .  S
C1525      C1526   1.419       .  A
C1526      C1530   1.509       .  S
C1527      C1532   1.411       .  A
C1527      C1536   1.401       .  A
C1528      H1544   1.109       .  S
C1528      H1545   1.110       .  S
C1528      H1546   1.111       .  S
C1530      H1541   1.110       .  S
C1530      H1542   1.111       .  S
C1530      H1543   1.110       .  S
C1532      C1533   1.402       .  A
C1532      C1537   1.507       .  S
C1533      C1534   1.404       .  A
C1533      H1538   1.084       .  S
C1534      C1535   1.416       .  A
C1535      C1536   1.402       .  A
C1535      C1539   1.508       .  S
C1536      H1540   1.084       .  S
C1537      H1547   1.111       .  S
C1537      H1548   1.109       .  S
C1537      H1549   1.110       .  S
C1539      H1550   1.111       .  S
C1539      H1551   1.110       .  S
C1539      H1552   1.111       .  S
C1553      C1554   1.398       .  A
C1553      C1558   1.405       .  A
C1553      H1563   1.084       .  S
C1554      C1559   1.470       .  S
C1554      C1555   1.403       .  A
C1555      C1556   1.395       .  A
C1555      C1560   1.508       .  S
C1556      C1557   1.410       .  A
C1556      H1561   1.083       .  S
C1557      C1558   1.426       .  A
C1558      C1562   1.509       .  S
C1559      C1564   1.409       .  A
C1559      C1568   1.399       .  A
C1560      H1576   1.110       .  S
C1560      H1577   1.110       .  S
C1560      H1578   1.110       .  S
C1562      H1573   1.110       .  S
C1562      H1574   1.111       .  S
C1562      H1575   1.110       .  S
C1564      C1565   1.400       .  A
C1564      C1569   1.506       .  S
C1565      C1566   1.401       .  A
C1565      H1570   1.081       .  S
C1566      C1567   1.415       .  A
C1567      C1568   1.397       .  A
C1567      C1571   1.510       .  S
C1568      H1572   1.084       .  S
C1569      H1579   1.111       .  S
C1569      H1580   1.110       .  S
C1569      H1581   1.110       .  S
C1571      H1582   1.108       .  S
C1571      H1583   1.111       .  S
C1571      H1584   1.111       .  S
C1585      C1586   1.400       .  A
C1585      C1590   1.400       .  A
C1585      H1595   1.084       .  S
C1586      C1591   1.477       .  S
C1586      C1587   1.410       .  A
C1587      C1588   1.404       .  A
C1587      C1592   1.507       .  S
C1588      C1589   1.407       .  A
C1588      H1593   1.084       .  S
C1589      C1590   1.416       .  A
C1590      C1594   1.509       .  S
C1591      C1596   1.409       .  A
C1591      C1600   1.399       .  A
C1592      H1608   1.110       .  S
C1592      H1609   1.110       .  S
C1592      H1610   1.111       .  S
C1594      H1605   1.109       .  S
C1594      H1606   1.111       .  S
C1594      H1607   1.111       .  S
C1596      C1597   1.401       .  A
C1596      C1601   1.507       .  S
C1597      C1598   1.406       .  A
C1597      H1602   1.084       .  S
C1598      C1599   1.422       .  A
C1599      C1600   1.403       .  A
C1599      C1603   1.509       .  S
C1600      H1604   1.084       .  S
C1601      H1611   1.111       .  S
C1601      H1612   1.110       .  S
C1601      H1613   1.110       .  S
C1603      H1614   1.111       .  S
C1603      H1615   1.110       .  S
C1603      H1616   1.109       .  S
C1617      C1618   1.400       .  A
C1617      C1622   1.404       .  A
C1617      H1627   1.084       .  S
C1618      C1623   1.476       .  S
C1618      C1619   1.409       .  A
C1619      C1620   1.401       .  A
C1619      C1624   1.507       .  S
C1620      C1621   1.404       .  A
C1620      H1625   1.084       .  S
C1621      C1622   1.416       .  A
C1622      C1626   1.508       .  S
C1623      C1628   1.408       .  A
C1623      C1632   1.402       .  A
C1624      H1640   1.110       .  S
C1624      H1641   1.110       .  S
C1624      H1642   1.111       .  S
C1626      H1637   1.111       .  S
C1626      H1638   1.110       .  S
C1626      H1639   1.109       .  S
C1628      C1629   1.399       .  A
C1628      C1633   1.507       .  S
C1629      C1630   1.406       .  A
C1629      H1634   1.084       .  S
C1630      C1631   1.415       .  A
C1631      C1632   1.405       .  A
C1631      C1635   1.508       .  S
C1632      H1636   1.084       .  S
C1633      H1643   1.111       .  S
C1633      H1644   1.110       .  S
C1633      H1645   1.110       .  S
C1635      H1646   1.111       .  S
C1635      H1647   1.111       .  S
C1635      H1648   1.109       .  S
C1649      C1650   1.399       .  A
C1649      C1654   1.397       .  A
C1649      H1659   1.084       .  S
C1650      C1655   1.469       .  S
C1650      C1651   1.408       .  A
C1651      C1652   1.402       .  A
C1651      C1656   1.505       .  S
C1652      C1653   1.403       .  A
C1652      H1657   1.084       .  S
C1653      C1654   1.412       .  A
C1654      C1658   1.508       .  S
C1655      C1660   1.406       .  A
C1655      C1664   1.399       .  A
C1656      H1672   1.110       .  S
C1656      H1673   1.110       .  S
C1656      H1674   1.111       .  S
C1658      H1669   1.111       .  S
C1658      H1670   1.109       .  S
C1658      H1671   1.110       .  S
C1660      C1661   1.395       .  A
C1660      C1665   1.509       .  S
C1661      C1662   1.405       .  A
C1661      H1666   1.079       .  S
C1662      C1663   1.418       .  A
C1663      C1664   1.404       .  A
C1663      C1667   1.507       .  S
C1664      H1668   1.084       .  S
C1665      H1675   1.111       .  S
C1665      H1676   1.110       .  S
C1665      H1677   1.110       .  S
C1667      H1678   1.109       .  S
C1667      H1679   1.110       .  S
C1667      H1680   1.111       .  S
C1681      C1682   1.400       .  A
C1681      C1686   1.404       .  A
C1681      H1691   1.084       .  S
C1682      C1687   1.480       .  S
C1682      C1683   1.410       .  A
C1683      C1684   1.405       .  A
C1683      C1688   1.507       .  S
C1684      C1685   1.407       .  A
C1684      H1689   1.084       .  S
C1685      C1686   1.416       .  A
C1686      C1690   1.507       .  S
C1687      C1692   1.409       .  A
C1687      C1696   1.400       .  A
C1688      H1704   1.110       .  S
C1688      H1705   1.110       .  S
C1688      H1706   1.111       .  S
C1690      H1701   1.111       .  S
C1690      H1702   1.110       .  S
C1690      H1703   1.110       .  S
C1692      C1693   1.401       .  A
C1692      C1697   1.507       .  S
C1693      C1694   1.407       .  A
C1693      H1698   1.084       .  S
C1694      C1695   1.421       .  A
C1695      C1696   1.406       .  A
C1695      C1699   1.509       .  S
C1696      H1700   1.084       .  S
C1697      H1707   1.111       .  S
C1697      H1708   1.110       .  S
C1697      H1709   1.110       .  S
C1699      H1710   1.109       .  S
C1699      H1711   1.111       .  S
C1699      H1712   1.111       .  S
C1713      C1714   1.396       .  A
C1713      C1718   1.403       .  A
C1713      H1723   1.084       .  S
C1714      C1719   1.478       .  S
C1714      C1715   1.408       .  A
C1715      C1716   1.402       .  A
C1715      C1720   1.507       .  S
C1716      C1717   1.408       .  A
C1716      H1721   1.083       .  S
C1717      C1718   1.428       .  A
C1718      C1722   1.510       .  S
C1719      C1724   1.412       .  A
C1719      C1728   1.401       .  A
C1720      H1736   1.110       .  S
C1720      H1737   1.109       .  S
C1720      H1738   1.111       .  S
C1722      H1733   1.111       .  S
C1722      H1734   1.109       .  S
C1722      H1735   1.110       .  S
C1724      C1725   1.402       .  A
C1724      C1729   1.508       .  S
C1725      C1726   1.402       .  A
C1725      H1730   1.084       .  S
C1726      C1727   1.414       .  A
C1727      C1728   1.403       .  A
C1727      C1731   1.509       .  S
C1728      H1732   1.084       .  S
C1729      H1739   1.111       .  S
C1729      H1740   1.110       .  S
C1729      H1741   1.109       .  S
C1731      H1742   1.110       .  S
C1731      H1743   1.108       .  S
C1731      H1744   1.111       .  S
C1745      C1746   1.399       .  A
C1745      C1750   1.402       .  A
C1745      H1755   1.084       .  S
C1746      C1751   1.470       .  S
C1746      C1747   1.407       .  A
C1747      C1748   1.397       .  A
C1747      C1752   1.507       .  S
C1748      C1749   1.406       .  A
C1748      H1753   1.084       .  S
C1749      C1750   1.419       .  A
C1750      C1754   1.509       .  S
C1751      C1756   1.409       .  A
C1751      C1760   1.399       .  A
C1752      H1768   1.110       .  S
C1752      H1769   1.110       .  S
C1752      H1770   1.111       .  S
C1754      H1765   1.111       .  S
C1754      H1766   1.109       .  S
C1754      H1767   1.111       .  S
C1756      C1757   1.399       .  A
C1756      C1761   1.507       .  S
C1757      C1758   1.403       .  A
C1757      H1762   1.084       .  S
C1758      C1759   1.414       .  A
C1759      C1760   1.401       .  A
C1759      C1763   1.507       .  S
C1760      H1764   1.084       .  S
C1761      H1771   1.111       .  S
C1761      H1772   1.110       .  S
C1761      H1773   1.110       .  S
C1763      H1774   1.111       .  S
C1763      H1775   1.109       .  S
C1763      H1776   1.111       .  S
C1777      C1778   1.401       .  A
C1777      C1782   1.407       .  A
C1777      H1787   1.084       .  S
C1778      C1783   1.482       .  S
C1778      C1779   1.409       .  A
C1779      C1780   1.403       .  A
C1779      C1784   1.507       .  S
C1780      C1781   1.405       .  A
C1780      H1785   1.084       .  S
C1781      C1782   1.420       .  A
C1782      C1786   1.508       .  S
C1783      C1788   1.413       .  A
C1783      C1792   1.397       .  A
C1784      H1800   1.110       .  S
C1784      H1801   1.110       .  S
C1784      H1802   1.111       .  S
C1786      H1797   1.110       .  S
C1786      H1798   1.111       .  S
C1786      H1799   1.109       .  S
C1788      C1789   1.408       .  A
C1788      C1793   1.505       .  S
C1789      C1790   1.404       .  A
C1789      H1794   1.084       .  S
C1790      C1791   1.418       .  A
C1791      C1792   1.400       .  A
C1791      C1795   1.507       .  S
C1792      H1796   1.084       .  S
C1793      H1803   1.111       .  S
C1793      H1804   1.110       .  S
C1793      H1805   1.110       .  S
C1795      H1806   1.108       .  S
C1795      H1807   1.111       .  S
C1795      H1808   1.111       .  S
C1809      C1810   1.401       .  A
C1809      C1814   1.406       .  A
C1809      H1819   1.084       .  S
C1810      C1815   1.483       .  S
C1810      C1811   1.411       .  A
C1811      C1812   1.405       .  A
C1811      C1816   1.507       .  S
C1812      C1813   1.405       .  A
C1812      H1817   1.084       .  S
C1813      C1814   1.417       .  A
C1814      C1818   1.507       .  S
C1815      C1820   1.410   1_455  A
C1815      C1824   1.401   1_455  A
C1816      H1832   1.110       .  S
C1816      H1833   1.109       .  S
C1816      H1834   1.111       .  S
C1818      H1829   1.111       .  S
C1818      H1830   1.109       .  S
C1818      H1831   1.111       .  S
C1820      C1821   1.403       .  A
C1820      C1825   1.507   1_655  S
C1821      C1822   1.405       .  A
C1821      H1826   1.084       .  S
C1822      C1823   1.421       .  A
C1823      C1824   1.407       .  A
C1823      C1827   1.509       .  S
C1824      H1828   1.084   1_655  S
C1825      H1835   1.111   1_455  S
C1825      H1836   1.110       .  S
C1825      H1837   1.108       .  S
C1827      H1838   1.109       .  S
C1827      H1839   1.110       .  S
C1827      H1840   1.111       .  S
C1841      C1842   1.403       .  A
C1841      C1846   1.407       .  A
C1841      H1851   1.084       .  S
C1842      C1847   1.481       .  S
C1842      C1843   1.410       .  A
C1843      C1844   1.400       .  A
C1843      C1848   1.508       .  S
C1844      C1845   1.406       .  A
C1844      H1849   1.085       .  S
C1845      C1846   1.417       .  A
C1846      C1850   1.507       .  S
C1847      C1852   1.411       .  A
C1847      C1856   1.399       .  A
C1848      H1864   1.110       .  S
C1848      H1865   1.109       .  S
C1848      H1866   1.111       .  S
C1850      H1861   1.111       .  S
C1850      H1862   1.110       .  S
C1850      H1863   1.111       .  S
C1852      C1853   1.408       .  A
C1852      C1857   1.506       .  S
C1853      C1854   1.407       .  A
C1853      H1858   1.084       .  S
C1854      C1855   1.415       .  A
C1855      C1856   1.402       .  A
C1855      C1859   1.507       .  S
C1856      H1860   1.084       .  S
C1857      H1867   1.111       .  S
C1857      H1868   1.110       .  S
C1857      H1869   1.109       .  S
C1859      H1870   1.109       .  S
C1859      H1871   1.110       .  S
C1859      H1872   1.111       .  S
C1873      C1874   1.401       .  A
C1873      C1878   1.400       .  A
C1873      H1883   1.084       .  S
C1874      C1879   1.470       .  S
C1874      C1875   1.411       .  A
C1875      C1876   1.398       .  A
C1875      C1880   1.507       .  S
C1876      C1877   1.400       .  A
C1876      H1881   1.085       .  S
C1877      C1878   1.408       .  A
C1878      C1882   1.506       .  S
C1879      C1884   1.407       .  A
C1879      C1888   1.397       .  A
C1880      H1896   1.110       .  S
C1880      H1897   1.110       .  S
C1880      H1898   1.111       .  S
C1882      H1893   1.111       .  S
C1882      H1894   1.110       .  S
C1882      H1895   1.111       .  S
C1884      C1885   1.397       .  A
C1884      C1889   1.508       .  S
C1885      C1886   1.408       .  A
C1885      H1890   1.083       .  S
C1886      C1887   1.424       .  A
C1887      C1888   1.402       .  A
C1887      C1891   1.509       .  S
C1888      H1892   1.084       .  S
C1889      H1899   1.111       .  S
C1889      H1900   1.110       .  S
C1889      H1901   1.110       .  S
C1891      H1902   1.110       .  S
C1891      H1903   1.110       .  S
C1891      H1904   1.111       .  S
C1905      C1906   1.399       .  A
C1905      C1910   1.403       .  A
C1905      H1915   1.084       .  S
C1906      C1911   1.477       .  S
C1906      C1907   1.409       .  A
C1907      C1908   1.402       .  A
C1907      C1912   1.507       .  S
C1908      C1909   1.406       .  A
C1908      H1913   1.084       .  S
C1909      C1910   1.418       .  A
C1910      C1914   1.508       .  S
C1911      C1916   1.410       .  A
C1911      C1920   1.399       .  A
C1912      H1928   1.110       .  S
C1912      H1929   1.110       .  S
C1912      H1930   1.111       .  S
C1914      H1925   1.110       .  S
C1914      H1926   1.111       .  S
C1914      H1927   1.109       .  S
C1916      C1917   1.403       .  A
C1916      C1921   1.506       .  S
C1917      C1918   1.404       .  A
C1917      H1922   1.084       .  S
C1918      C1919   1.418       .  A
C1919      C1920   1.402       .  A
C1919      C1923   1.509       .  S
C1920      H1924   1.084       .  S
C1921      H1931   1.111       .  S
C1921      H1932   1.110       .  S
C1921      H1933   1.110       .  S
C1923      H1934   1.109       .  S
C1923      H1935   1.111       .  S
C1923      H1936   1.111       .  S
C1937      C1938   1.399       .  A
C1937      C1942   1.399       .  A
C1937      H1947   1.085       .  S
C1938      C1943   1.469       .  S
C1938      C1939   1.408       .  A
C1939      C1940   1.398       .  A
C1939      C1944   1.507       .  S
C1940      C1941   1.403       .  A
C1940      H1945   1.084       .  S
C1941      C1942   1.417       .  A
C1942      C1946   1.509       .  S
C1943      C1948   1.407       .  A
C1943      C1952   1.398       .  A
C1944      H1960   1.110       .  S
C1944      H1961   1.110       .  S
C1944      H1962   1.111       .  S
C1946      H1957   1.109       .  S
C1946      H1958   1.111       .  S
C1946      H1959   1.111       .  S
C1948      C1949   1.398       .  A
C1948      C1953   1.507       .  S
C1949      C1950   1.406       .  A
C1949      H1954   1.084       .  S
C1950      C1951   1.419       .  A
C1951      C1952   1.398       .  A
C1951      C1955   1.509       .  S
C1952      H1956   1.085       .  S
C1953      H1963   1.111       .  S
C1953      H1964   1.110       .  S
C1953      H1965   1.110       .  S
C1955      H1966   1.110       .  S
C1955      H1967   1.109       .  S
C1955      H1968   1.111       .  S
C1969      C1970   1.401       .  A
C1969      C1974   1.405       .  A
C1969      H1979   1.084       .  S
C1970      C1975   1.475       .  S
C1970      C1971   1.406       .  A
C1971      C1972   1.397       .  A
C1971      C1976   1.507       .  S
C1972      C1973   1.406       .  A
C1972      H1977   1.082       .  S
C1973      C1974   1.419       .  A
C1974      C1978   1.508       .  S
C1975      C1980   1.408       .  A
C1975      C1984   1.397       .  A
C1976      H1992   1.110       .  S
C1976      H1993   1.110       .  S
C1976      H1994   1.111       .  S
C1978      H1989   1.111       .  S
C1978      H1990   1.110       .  S
C1978      H1991   1.110       .  S
C1980      C1981   1.399       .  A
C1980      C1985   1.507       .  S
C1981      C1982   1.406       .  A
C1981      H1986   1.084       .  S
C1982      C1983   1.424       .  A
C1983      C1984   1.404       .  A
C1983      C1987   1.510       .  S
C1984      H1988   1.084       .  S
C1985      H1995   1.111       .  S
C1985      H1996   1.110       .  S
C1985      H1997   1.110       .  S
C1987      H1998   1.111       .  S
C1987      H1999   1.110       .  S
C1987      H2000   1.111       .  S
C2001      C2002   1.398       .  A
C2001      C2006   1.401       .  A
C2001      H2011   1.084       .  S
C2002      C2007   1.470       .  S
C2002      C2003   1.408       .  A
C2003      C2004   1.398       .  A
C2003      C2008   1.508       .  S
C2004      C2005   1.406       .  A
C2004      H2009   1.084       .  S
C2005      C2006   1.420       .  A
C2006      C2010   1.510       .  S
C2007      C2012   1.409       .  A
C2007      C2016   1.399       .  A
C2008      H2024   1.110       .  S
C2008      H2025   1.110       .  S
C2008      H2026   1.111       .  S
C2010      H2021   1.109       .  S
C2010      H2022   1.111       .  S
C2010      H2023   1.111       .  S
C2012      C2013   1.398       .  A
C2012      C2017   1.508       .  S
C2013      C2014   1.404       .  A
C2013      H2018   1.084       .  S
C2014      C2015   1.415       .  A
C2015      C2016   1.401       .  A
C2015      C2019   1.507       .  S
C2016      H2020   1.084       .  S
C2017      H2027   1.111       .  S
C2017      H2028   1.110       .  S
C2017      H2029   1.110       .  S
C2019      H2030   1.110       .  S
C2019      H2031   1.109       .  S
C2019      H2032   1.111       .  S
C2033      C2034   1.400       .  A
C2033      C2038   1.402       .  A
C2033      H2043   1.084       .  S
C2034      C2039   1.473       .  S
C2034      C2035   1.411       .  A
C2035      C2036   1.399       .  A
C2035      C2040   1.508       .  S
C2036      C2037   1.402       .  A
C2036      H2041   1.085       .  S
C2037      C2038   1.414       .  A
C2038      C2042   1.508       .  S
C2039      C2044   1.406       .  A
C2039      C2048   1.398       .  A
C2040      H2056   1.110       .  S
C2040      H2057   1.109       .  S
C2040      H2058   1.111       .  S
C2042      H2053   1.111       .  S
C2042      H2054   1.109       .  S
C2042      H2055   1.110       .  S
C2044      C2045   1.400       .  A
C2044      C2049   1.508       .  S
C2045      C2046   1.409       .  A
C2045      H2050   1.084       .  S
C2046      C2047   1.423       .  A
C2047      C2048   1.404       .  A
C2047      C2051   1.508       .  S
C2048      H2052   1.084       .  S
C2049      H2059   1.111       .  S
C2049      H2060   1.110       .  S
C2049      H2061   1.109       .  S
C2051      H2062   1.110       .  S
C2051      H2063   1.110       .  S
C2051      H2064   1.111       .  S
C2065      C2066   1.401       .  A
C2065      C2070   1.403       .  A
C2065      H2075   1.084       .  S
C2066      C2071   1.469       .  S
C2066      C2067   1.405       .  A
C2067      C2068   1.396       .  A
C2067      C2072   1.508       .  S
C2068      C2069   1.408       .  A
C2068      H2073   1.084       .  S
C2069      C2070   1.414       .  A
C2070      C2074   1.507       .  S
C2071      C2076   1.407       .  A
C2071      C2080   1.397       .  A
C2072      H2088   1.110       .  S
C2072      H2089   1.110       .  S
C2072      H2090   1.111       .  S
C2074      H2085   1.111       .  S
C2074      H2086   1.111       .  S
C2074      H2087   1.109       .  S
C2076      C2077   1.399       .  A
C2076      C2081   1.507       .  S
C2077      C2078   1.406       .  A
C2077      H2082   1.084       .  S
C2078      C2079   1.417       .  A
C2079      C2080   1.400       .  A
C2079      C2083   1.506       .  S
C2080      H2084   1.084       .  S
C2081      H2091   1.111       .  S
C2081      H2092   1.110       .  S
C2081      H2093   1.110       .  S
C2083      H2094   1.108       .  S
C2083      H2095   1.109       .  S
C2083      H2096   1.111       .  S
C2097      C2098   1.400       .  A
C2097      C2102   1.405       .  A
C2097      H2107   1.084       .  S
C2098      C2103   1.481       .  S
C2098      C2099   1.410       .  A
C2099      C2100   1.405       .  A
C2099      C2104   1.507       .  S
C2100      C2101   1.406       .  A
C2100      H2105   1.084       .  S
C2101      C2102   1.417       .  A
C2102      C2106   1.507       .  S
C2103      C2108   1.408       .  A
C2103      C2112   1.403       .  A
C2104      H2120   1.110       .  S
C2104      H2121   1.110       .  S
C2104      H2122   1.111       .  S
C2106      H2117   1.109       .  S
C2106      H2118   1.111       .  S
C2106      H2119   1.111       .  S
C2108      C2109   1.399       .  A
C2108      C2113   1.507       .  S
C2109      C2110   1.407       .  A
C2109      H2114   1.084       .  S
C2110      C2111   1.420       .  A
C2111      C2112   1.408       .  A
C2111      C2115   1.509       .  S
C2112      H2116   1.084       .  S
C2113      H2123   1.111       .  S
C2113      H2124   1.110       .  S
C2113      H2125   1.110       .  S
C2115      H2126   1.111       .  S
C2115      H2127   1.111       .  S
C2115      H2128   1.109       .  S
C2129      C2130   1.398       .  A
C2129      C2134   1.403   1_565  A
C2129      H2139   1.084       .  S
C2130      C2135   1.482       .  S
C2130      C2131   1.409   1_565  A
C2131      C2132   1.405       .  A
C2131      C2136   1.506   1_545  S
C2132      C2133   1.408       .  A
C2132      H2137   1.084       .  S
C2133      C2134   1.421       .  A
C2134      C2138   1.502       .  S
C2135      C2140   1.410       .  A
C2135      C2144   1.400       .  A
C2136      H2152   1.110       .  S
C2136      H2153   1.110       .  S
C2136      H2154   1.111   1_565  S
C2138      H2149   1.109       .  S
C2138      H2150   1.111       .  S
C2138      H2151   1.110       .  S
C2140      C2141   1.402       .  A
C2140      C2145   1.507       .  S
C2141      C2142   1.406       .  A
C2141      H2146   1.084       .  S
C2142      C2143   1.420       .  A
C2143      C2144   1.406       .  A
C2143      C2147   1.507       .  S
C2144      H2148   1.084       .  S
C2145      H2155   1.111       .  S
C2145      H2156   1.110       .  S
C2145      H2157   1.110       .  S
C2147      H2158   1.111       .  S
C2147      H2159   1.110       .  S
C2147      H2160   1.109       .  S
C2161      C2162   1.397       .  A
C2161      C2166   1.400       .  A
C2161      H2171   1.084       .  S
C2162      C2167   1.472       .  S
C2162      C2163   1.409       .  A
C2163      C2164   1.403       .  A
C2163      C2168   1.507       .  S
C2164      C2165   1.404       .  A
C2164      H2169   1.084       .  S
C2165      C2166   1.414       .  A
C2166      C2170   1.503       .  S
C2167      C2172   1.407       .  A
C2167      C2176   1.399       .  A
C2168      H2184   1.110       .  S
C2168      H2185   1.110       .  S
C2168      H2186   1.111       .  S
C2170      H2181   1.110       .  S
C2170      H2182   1.111       .  S
C2170      H2183   1.101       .  S
C2172      C2173   1.398       .  A
C2172      C2177   1.506       .  S
C2173      C2174   1.405       .  A
C2173      H2178   1.084       .  S
C2174      C2175   1.419       .  A
C2175      C2176   1.402       .  A
C2175      C2179   1.509       .  S
C2176      H2180   1.084       .  S
C2177      H2187   1.111       .  S
C2177      H2188   1.110       .  S
C2177      H2189   1.110       .  S
C2179      H2190   1.110       .  S
C2179      H2191   1.110       .  S
C2179      H2192   1.111       .  S
C2193      C2194   1.401       .  A
C2193      C2198   1.409       .  A
C2193      H2203   1.084       .  S
C2194      C2199   1.491       .  S
C2194      C2195   1.409       .  A
C2195      C2196   1.406       .  A
C2195      C2200   1.506       .  S
C2196      C2197   1.410       .  A
C2196      H2201   1.083       .  S
C2197      C2198   1.426       .  A
C2198      C2202   1.509       .  S
C2199      C2204   1.412       .  A
C2199      C2208   1.402       .  A
C2200      H2216   1.110       .  S
C2200      H2217   1.110       .  S
C2200      H2218   1.111       .  S
C2202      H2213   1.111       .  S
C2202      H2214   1.110       .  S
C2202      H2215   1.110       .  S
C2204      C2205   1.410       .  A
C2204      C2209   1.506       .  S
C2205      C2206   1.406       .  A
C2205      H2210   1.084       .  S
C2206      C2207   1.419       .  A
C2207      C2208   1.407       .  A
C2207      C2211   1.509       .  S
C2208      H2212   1.084       .  S
C2209      H2219   1.111       .  S
C2209      H2220   1.110       .  S
C2209      H2221   1.110       .  S
C2211      H2222   1.110       .  S
C2211      H2223   1.106       .  S
C2211      H2224   1.110       .  S
C2225      C2226   1.397       .  A
C2225      C2230   1.398       .  A
C2225      H2235   1.085       .  S
C2226      C2231   1.469       .  S
C2226      C2227   1.407       .  A
C2227      C2228   1.399       .  A
C2227      C2232   1.505       .  S
C2228      C2229   1.403       .  A
C2228      H2233   1.084       .  S
C2229      C2230   1.419       .  A
C2230      C2234   1.510       .  S
C2231      C2236   1.406       .  A
C2231      C2240   1.399       .  A
C2232      H2248   1.110       .  S
C2232      H2249   1.110       .  S
C2232      H2250   1.111       .  S
C2234      H2245   1.110       .  S
C2234      H2246   1.111       .  S
C2234      H2247   1.110       .  S
C2236      C2237   1.401       .  A
C2236      C2241   1.506       .  S
C2237      C2238   1.406       .  A
C2237      H2242   1.084       .  S
C2238      C2239   1.416       .  A
C2239      C2240   1.399       .  A
C2239      C2243   1.508       .  S
C2240      H2244   1.085       .  S
C2241      H2251   1.111       .  S
C2241      H2252   1.110       .  S
C2241      H2253   1.110       .  S
C2243      H2254   1.110       .  S
C2243      H2255   1.109       .  S
C2243      H2256   1.111       .  S
C2257      C2258   1.396       .  A
C2257      C2262   1.398       .  A
C2257      H2267   1.085       .  S
C2258      C2263   1.460       .  S
C2258      C2259   1.402       .  A
C2259      C2260   1.394       .  A
C2259      C2264   1.508       .  S
C2260      C2261   1.411       .  A
C2260      H2265   1.083       .  S
C2261      C2262   1.420       .  A
C2262      C2266   1.507       .  S
C2263      C2268   1.403       .  A
C2263      C2272   1.399       .  A
C2264      H2280   1.110       .  S
C2264      H2281   1.110       .  S
C2264      H2282   1.111       .  S
C2266      H2277   1.111       .  S
C2266      H2278   1.109       .  S
C2266      H2279   1.110       .  S
C2268      C2269   1.389       .  A
C2268      C2273   1.508       .  S
C2269      C2270   1.405       .  A
C2269      H2274   1.084       .  S
C2270      C2271   1.419       .  A
C2271      C2272   1.401       .  A
C2271      C2275   1.509       .  S
C2272      H2276   1.084       .  S
C2273      H2283   1.111       .  S
C2273      H2284   1.110       .  S
C2273      H2285   1.110       .  S
C2275      H2286   1.110       .  S
C2275      H2287   1.110       .  S
C2275      H2288   1.111       .  S
C2289      C2290   1.402       .  A
C2289      C2294   1.401       .  A
C2289      H2299   1.084       .  S
C2290      C2295   1.470       .  S
C2290      C2291   1.409       .  A
C2291      C2292   1.394       .  A
C2291      C2296   1.508       .  S
C2292      C2293   1.403       .  A
C2292      H2297   1.085       .  S
C2293      C2294   1.412       .  A
C2294      C2298   1.507       .  S
C2295      C2300   1.408       .  A
C2295      C2304   1.399       .  A
C2296      H2312   1.109       .  S
C2296      H2313   1.111       .  S
C2296      H2314   1.110       .  S
C2298      H2309   1.111       .  S
C2298      H2310   1.111       .  S
C2298      H2311   1.109       .  S
C2300      C2301   1.398       .  A
C2300      C2305   1.508       .  S
C2301      C2302   1.406       .  A
C2301      H2306   1.083       .  S
C2302      C2303   1.418       .  A
C2303      C2304   1.400       .  A
C2303      C2307   1.508       .  S
C2304      H2308   1.084       .  S
C2305      H2315   1.111       .  S
C2305      H2316   1.110       .  S
C2305      H2317   1.110       .  S
C2307      H2318   1.109       .  S
C2307      H2319   1.110       .  S
C2307      H2320   1.111       .  S
C2321      C2322   1.400       .  A
C2321      C2326   1.399       .  A
C2321      H2331   1.085       .  S
C2322      C2327   1.468       .  S
C2322      C2323   1.408       .  A
C2323      C2324   1.398       .  A
C2323      C2328   1.506       .  S
C2324      C2325   1.402       .  A
C2324      H2329   1.085       .  S
C2325      C2326   1.415       .  A
C2326      C2330   1.509       .  S
C2327      C2332   1.409       .  A
C2327      C2336   1.401       .  A
C2328      H2344   1.110       .  S
C2328      H2345   1.110       .  S
C2328      H2346   1.111       .  S
C2330      H2341   1.111       .  S
C2330      H2342   1.110       .  S
C2330      H2343   1.107       .  S
C2332      C2333   1.399       .  A
C2332      C2337   1.507       .  S
C2333      C2334   1.400       .  A
C2333      H2338   1.084       .  S
C2334      C2335   1.408       .  A
C2335      C2336   1.400       .  A
C2335      C2339   1.506       .  S
C2336      H2340   1.084       .  S
C2337      H2347   1.111       .  S
C2337      H2348   1.110       .  S
C2337      H2349   1.110       .  S
C2339      H2350   1.111       .  S
C2339      H2351   1.110       .  S
C2339      H2352   1.110       .  S
C2353      C2354   1.398       .  A
C2353      C2358   1.398       .  A
C2353      H2363   1.085       .  S
C2354      C2359   1.471       .  S
C2354      C2355   1.410       .  A
C2355      C2356   1.403       .  A
C2355      C2360   1.507       .  S
C2356      C2357   1.404       .  A
C2356      H2361   1.084       .  S
C2357      C2358   1.413       .  A
C2358      C2362   1.507       .  S
C2359      C2364   1.406       .  A
C2359      C2368   1.399       .  A
C2360      H2376   1.110       .  S
C2360      H2377   1.111       .  S
C2360      H2378   1.111       .  S
C2362      H2373   1.111       .  S
C2362      H2374   1.110       .  S
C2362      H2375   1.108       .  S
C2364      C2365   1.398       .  A
C2364      C2369   1.507       .  S
C2365      C2366   1.404       .  A
C2365      H2370   1.079       .  S
C2366      C2367   1.418       .  A
C2367      C2368   1.401       .  A
C2367      C2371   1.509       .  S
C2368      H2372   1.084       .  S
C2369      H2379   1.111       .  S
C2369      H2380   1.110       .  S
C2369      H2381   1.110       .  S
C2371      H2382   1.110       .  S
C2371      H2383   1.111       .  S
C2371      H2384   1.111       .  S
C2385      C2386   1.398       .  A
C2385      C2390   1.403       .  A
C2385      H2395   1.084       .  S
C2386      C2391   1.471       .  S
C2386      C2387   1.405       .  A
C2387      C2388   1.397       .  A
C2387      C2392   1.508       .  S
C2388      C2389   1.411       .  A
C2388      H2393   1.083       .  S
C2389      C2390   1.424       .  A
C2390      C2394   1.509       .  S
C2391      C2396   1.408       .  A
C2391      C2400   1.397       .  A
C2392      H2408   1.110       .  S
C2392      H2409   1.110       .  S
C2392      H2410   1.111       .  S
C2394      H2405   1.110       .  S
C2394      H2406   1.111       .  S
C2394      H2407   1.111       .  S
C2396      C2397   1.399       .  A
C2396      C2401   1.507       .  S
C2397      C2398   1.406       .  A
C2397      H2402   1.084       .  S
C2398      C2399   1.421       .  A
C2399      C2400   1.400       .  A
C2399      C2403   1.507       .  S
C2400      H2404   1.084       .  S
C2401      H2411   1.111       .  S
C2401      H2412   1.110       .  S
C2401      H2413   1.111       .  S
C2403      H2414   1.111       .  S
C2403      H2415   1.110       .  S
C2403      H2416   1.109       .  S
C2417      C2418   1.401       .  A
C2417      C2422   1.402       .  A
C2417      H2427   1.084       .  S
C2418      C2423   1.472       .  S
C2418      C2419   1.413       .  A
C2419      C2420   1.398       .  A
C2419      C2424   1.509       .  S
C2420      C2421   1.400       .  A
C2420      H2425   1.084       .  S
C2421      C2422   1.410       .  A
C2422      C2426   1.505       .  S
C2423      C2428   1.409       .  A
C2423      C2432   1.397       .  A
C2424      H2440   1.109       .  S
C2424      H2441   1.110       .  S
C2424      H2442   1.111       .  S
C2426      H2437   1.111       .  S
C2426      H2438   1.108       .  S
C2426      H2439   1.111       .  S
C2428      C2429   1.401       .  A
C2428      C2433   1.505       .  S
C2429      C2430   1.404       .  A
C2429      H2434   1.084       .  S
C2430      C2431   1.418       .  A
C2431      C2432   1.396       .  A
C2431      C2435   1.505       .  S
C2432      H2436   1.085       .  S
C2433      H2443   1.111       .  S
C2433      H2444   1.109       .  S
C2433      H2445   1.110       .  S
C2435      H2446   1.110       .  S
C2435      H2447   1.109       .  S
C2435      H2448   1.111       .  S
C2449      C2450   1.399       .  A
C2449      C2454   1.405       .  A
C2449      H2459   1.084       .  S
C2450      C2455   1.480       .  S
C2450      C2451   1.410       .  A
C2451      C2452   1.403       .  A
C2451      C2456   1.507       .  S
C2452      C2453   1.405       .  A
C2452      H2457   1.084       .  S
C2453      C2454   1.419       .  A
C2454      C2458   1.507       .  S
C2455      C2460   1.409   1_455  A
C2455      C2464   1.400       .  A
C2456      H2472   1.110       .  S
C2456      H2473   1.109       .  S
C2456      H2474   1.111       .  S
C2458      H2469   1.111       .  S
C2458      H2470   1.108       .  S
C2458      H2471   1.110       .  S
C2460      C2461   1.404       .  A
C2460      C2465   1.507   1_655  S
C2461      C2462   1.406       .  A
C2461      H2466   1.084       .  S
C2462      C2463   1.419       .  A
C2463      C2464   1.404   1_655  A
C2463      C2467   1.508       .  S
C2464      H2468   1.084       .  S
C2465      H2475   1.111   1_455  S
C2465      H2476   1.110       .  S
C2465      H2477   1.109       .  S
C2467      H2478   1.109       .  S
C2467      H2479   1.110       .  S
C2467      H2480   1.111       .  S
C2481      C2482   1.397       .  A
C2481      C2486   1.401       .  A
C2481      H2491   1.084       .  S
C2482      C2487   1.478       .  S
C2482      C2483   1.410       .  A
C2483      C2484   1.405       .  A
C2483      C2488   1.506       .  S
C2484      C2485   1.407       .  A
C2484      H2489   1.084       .  S
C2485      C2486   1.421       .  A
C2486      C2490   1.509       .  S
C2487      C2492   1.410       .  A
C2487      C2496   1.400       .  A
C2488      H2504   1.110       .  S
C2488      H2505   1.110       .  S
C2488      H2506   1.111       .  S
C2490      H2501   1.111       .  S
C2490      H2502   1.109       .  S
C2490      H2503   1.110       .  S
C2492      C2493   1.401       .  A
C2492      C2497   1.505       .  S
C2493      C2494   1.404       .  A
C2493      H2498   1.084       .  S
C2494      C2495   1.415       .  A
C2495      C2496   1.404       .  A
C2495      C2499   1.507       .  S
C2496      H2500   1.084       .  S
C2497      H2507   1.111       .  S
C2497      H2508   1.110       .  S
C2497      H2509   1.109       .  S
C2499      H2510   1.111       .  S
C2499      H2511   1.110       .  S
C2499      H2512   1.110       .  S
C2513      C2514   1.400       .  A
C2513      C2518   1.405       .  A
C2513      H2523   1.084       .  S
C2514      C2519   1.477       .  S
C2514      C2515   1.407       .  A
C2515      C2516   1.400       .  A
C2515      C2520   1.507       .  S
C2516      C2517   1.407       .  A
C2516      H2521   1.082       .  S
C2517      C2518   1.421       .  A
C2518      C2522   1.508       .  S
C2519      C2524   1.409       .  A
C2519      C2528   1.401       .  A
C2520      H2536   1.110       .  S
C2520      H2537   1.109       .  S
C2520      H2538   1.111       .  S
C2522      H2533   1.111       .  S
C2522      H2534   1.110       .  S
C2522      H2535   1.110       .  S
C2524      C2525   1.403       .  A
C2524      C2529   1.506       .  S
C2525      C2526   1.404       .  A
C2525      H2530   1.084       .  S
C2526      C2527   1.415       .  A
C2527      C2528   1.402       .  A
C2527      C2531   1.509       .  S
C2528      H2532   1.084       .  S
C2529      H2539   1.110       .  S
C2529      H2540   1.110       .  S
C2529      H2541   1.110       .  S
C2531      H2542   1.110       .  S
C2531      H2543   1.109       .  S
C2531      H2544   1.111       .  S
C2545      C2546   1.398       .  A
C2545      C2550   1.401       .  A
C2545      H2555   1.085       .  S
C2546      C2551   1.474       .  S
C2546      C2547   1.409       .  A
C2547      C2548   1.401       .  A
C2547      C2552   1.506       .  S
C2548      C2549   1.405       .  A
C2548      H2553   1.084       .  S
C2549      C2550   1.418       .  A
C2550      C2554   1.503       .  S
C2551      C2556   1.409       .  A
C2551      C2560   1.399       .  A
C2552      H2568   1.110       .  S
C2552      H2569   1.110       .  S
C2552      H2570   1.111       .  S
C2554      H2565   1.111       .  S
C2554      H2566   1.109       .  S
C2554      H2567   1.107       .  S
C2556      C2557   1.405       .  A
C2556      C2561   1.505       .  S
C2557      C2558   1.404       .  A
C2557      H2562   1.084       .  S
C2558      C2559   1.413       .  A
C2559      C2560   1.396       .  A
C2559      C2563   1.508       .  S
C2560      H2564   1.085       .  S
C2561      H2571   1.111       .  S
C2561      H2572   1.110       .  S
C2561      H2573   1.110       .  S
C2563      H2574   1.110       .  S
C2563      H2575   1.107       .  S
C2563      H2576   1.111       .  S
C2577      C2578   1.402       .  A
C2577      C2582   1.404       .  A
C2577      H2587   1.084       .  S
C2578      C2583   1.480       .  S
C2578      C2579   1.410       .  A
C2579      C2580   1.402       .  A
C2579      C2584   1.505       .  S
C2580      C2581   1.404       .  A
C2580      H2585   1.085       .  S
C2581      C2582   1.414       .  A
C2582      C2586   1.508       .  S
C2583      C2588   1.410       .  A
C2583      C2592   1.400       .  A
C2584      H2600   1.110       .  S
C2584      H2601   1.110       .  S
C2584      H2602   1.109       .  S
C2586      H2597   1.111       .  S
C2586      H2598   1.110       .  S
C2586      H2599   1.108       .  S
C2588      C2589   1.406       .  A
C2588      C2593   1.506       .  S
C2589      C2590   1.407       .  A
C2589      H2594   1.084       .  S
C2590      C2591   1.416       .  A
C2591      C2592   1.401       .  A
C2591      C2595   1.508       .  S
C2592      H2596   1.084       .  S
C2593      H2603   1.111       .  S
C2593      H2604   1.110       .  S
C2593      H2605   1.110       .  S
C2595      H2606   1.109       .  S
C2595      H2607   1.110       .  S
C2595      H2608   1.111       .  S
C2609      C2610   1.395       .  A
C2609      C2614   1.398       .  A
C2609      H2619   1.085       .  S
C2610      C2615   1.471       .  S
C2610      C2611   1.408       .  A
C2611      C2612   1.403       .  A
C2611      C2616   1.506       .  S
C2612      C2613   1.407       .  A
C2612      H2617   1.084       .  S
C2613      C2614   1.418       .  A
C2614      C2618   1.502       .  S
C2615      C2620   1.408       .  A
C2615      C2624   1.398       .  A
C2616      H2632   1.110       .  S
C2616      H2633   1.110       .  S
C2616      H2634   1.111       .  S
C2618      H2629   1.111       .  S
C2618      H2630   1.110       .  S
C2618      H2631   1.105       .  S
C2620      C2621   1.401       .  A
C2620      C2625   1.506       .  S
C2621      C2622   1.406       .  A
C2621      H2626   1.084       .  S
C2622      C2623   1.419       .  A
C2623      C2624   1.398       .  A
C2623      C2627   1.510       .  S
C2624      H2628   1.085       .  S
C2625      H2635   1.110       .  S
C2625      H2636   1.110       .  S
C2625      H2637   1.110       .  S
C2627      H2638   1.109       .  S
C2627      H2639   1.109       .  S
C2627      H2640   1.111       .  S
C2641      C2642   1.402       .  A
C2641      C2646   1.404       .  A
C2641      H2651   1.084       .  S
C2642      C2647   1.477       .  S
C2642      C2643   1.410       .  A
C2643      C2644   1.398       .  A
C2643      C2648   1.507       .  S
C2644      C2645   1.402       .  A
C2644      H2649   1.085       .  S
C2645      C2646   1.415       .  A
C2646      C2650   1.508       .  S
C2647      C2652   1.407       .  A
C2647      C2656   1.400       .  A
C2648      H2664   1.110       .  S
C2648      H2665   1.110       .  S
C2648      H2666   1.111       .  S
C2650      H2661   1.110       .  S
C2650      H2662   1.111       .  S
C2650      H2663   1.107       .  S
C2652      C2653   1.401       .  A
C2652      C2657   1.507       .  S
C2653      C2654   1.408       .  A
C2653      H2658   1.084       .  S
C2654      C2655   1.419       .  A
C2655      C2656   1.404       .  A
C2655      C2659   1.507       .  S
C2656      H2660   1.084       .  S
C2657      H2667   1.111       .  S
C2657      H2668   1.110       .  S
C2657      H2669   1.110       .  S
C2659      H2670   1.111       .  S
C2659      H2671   1.110       .  S
C2659      H2672   1.109       .  S
C2673      C2674   1.398       .  A
C2673      C2678   1.404       .  A
C2673      H2683   1.084       .  S
C2674      C2679   1.478       .  S
C2674      C2675   1.409       .  A
C2675      C2676   1.402       .  A
C2675      C2680   1.507       .  S
C2676      C2677   1.407       .  A
C2676      H2681   1.084   1_655  S
C2677      C2678   1.420       .  A
C2678      C2682   1.508       .  S
C2679      C2684   1.411       .  A
C2679      C2688   1.398       .  A
C2680      H2696   1.110       .  S
C2680      H2697   1.110       .  S
C2680      H2698   1.111       .  S
C2682      H2693   1.109       .  S
C2682      H2694   1.111       .  S
C2682      H2695   1.110       .  S
C2684      C2685   1.403       .  A
C2684      C2689   1.507       .  S
C2685      C2686   1.403       .  A
C2685      H2690   1.082       .  S
C2686      C2687   1.420       .  A
C2687      C2688   1.403       .  A
C2687      C2691   1.510       .  S
C2688      H2692   1.084       .  S
C2689      H2699   1.111       .  S
C2689      H2700   1.110       .  S
C2689      H2701   1.110       .  S
C2691      H2702   1.111       .  S
C2691      H2703   1.111       .  S
C2691      H2704   1.109       .  S
C2705      C2706   1.397       .  A
C2705      C2710   1.402       .  A
C2705      H2715   1.084       .  S
C2706      C2711   1.475       .  S
C2706      C2707   1.409       .  A
C2707      C2708   1.403       .  A
C2707      C2712   1.508       .  S
C2708      C2709   1.408       .  A
C2708      H2713   1.084       .  S
C2709      C2710   1.422       .  A
C2710      C2714   1.509       .  S
C2711      C2716   1.406       .  A
C2711      C2720   1.400       .  A
C2712      H2728   1.110       .  S
C2712      H2729   1.109       .  S
C2712      H2730   1.111       .  S
C2714      H2725   1.109       .  S
C2714      H2726   1.111       .  S
C2714      H2727   1.111       .  S
C2716      C2717   1.398       .  A
C2716      C2721   1.509       .  S
C2717      C2718   1.408       .  A
C2717      H2722   1.079       .  S
C2718      C2719   1.420       .  A
C2719      C2720   1.406       .  A
C2719      C2723   1.508       .  S
C2720      H2724   1.084       .  S
C2721      H2731   1.111       .  S
C2721      H2732   1.110       .  S
C2721      H2733   1.109       .  S
C2723      H2734   1.111       .  S
C2723      H2735   1.111       .  S
C2723      H2736   1.109       .  S
C2737      C2738   1.401       .  A
C2737      C2742   1.399       .  A
C2737      H2747   1.085       .  S
C2738      C2743   1.472       .  S
C2738      C2739   1.408       .  A
C2739      C2740   1.399       .  A
C2739      C2744   1.506       .  S
C2740      C2741   1.404       .  A
C2740      H2745   1.085       .  S
C2741      C2742   1.413       .  A
C2742      C2746   1.508       .  S
C2743      C2748   1.410       .  A
C2743      C2752   1.398       .  A
C2744      H2760   1.110       .  S
C2744      H2761   1.110       .  S
C2744      H2762   1.111       .  S
C2746      H2757   1.110       .  S
C2746      H2758   1.111       .  S
C2746      H2759   1.108       .  S
C2748      C2749   1.402       .  A
C2748      C2753   1.507       .  S
C2749      C2750   1.400       .  A
C2749      H2754   1.084       .  S
C2750      C2751   1.416       .  A
C2751      C2752   1.399       .  A
C2751      C2755   1.509       .  S
C2752      H2756   1.085       .  S
C2753      H2763   1.111       .  S
C2753      H2764   1.110       .  S
C2753      H2765   1.111       .  S
C2755      H2766   1.110       .  S
C2755      H2767   1.107   1_655  S
C2755      H2768   1.110       .  S
C2769      C2770   1.399       .  A
C2769      C2774   1.398       .  A
C2769      H2779   1.084       .  S
C2770      C2775   1.475       .  S
C2770      C2771   1.411       .  A
C2771      C2772   1.405       .  A
C2771      C2776   1.505       .  S
C2772      C2773   1.402       .  A
C2772      H2777   1.084       .  S
C2773      C2774   1.413       .  A
C2774      C2778   1.508       .  S
C2775      C2780   1.408       .  A
C2775      C2784   1.398       .  A
C2776      H2792   1.110       .  S
C2776      H2793   1.110       .  S
C2776      H2794   1.111       .  S
C2778      H2789   1.108       .  S
C2778      H2790   1.111       .  S
C2778      H2791   1.108       .  S
C2780      C2781   1.403       .  A
C2780      C2785   1.506       .  S
C2781      C2782   1.406       .  A
C2781      H2786   1.084   1_655  S
C2782      C2783   1.422       .  A
C2783      C2784   1.402       .  A
C2783      C2787   1.509       .  S
C2784      H2788   1.085       .  S
C2785      H2795   1.111       .  S
C2785      H2796   1.110       .  S
C2785      H2797   1.110       .  S
C2787      H2798   1.111       .  S
C2787      H2799   1.110       .  S
C2787      H2800   1.108       .  S
C2801      C2802   1.400       .  A
C2801      C2806   1.403       .  A
C2801      H2811   1.084       .  S
C2802      C2807   1.480       .  S
C2802      C2803   1.410       .  A
C2803      C2804   1.405       .  A
C2803      C2808   1.506       .  S
C2804      C2805   1.405       .  A
C2804      H2809   1.084       .  S
C2805      C2806   1.417       .  A
C2806      C2810   1.508       .  S
C2807      C2812   1.409       .  A
C2807      C2816   1.402       .  A
C2808      H2824   1.110       .  S
C2808      H2825   1.110       .  S
C2808      H2826   1.111       .  S
C2810      H2821   1.111       .  S
C2810      H2822   1.108       .  S
C2810      H2823   1.111       .  S
C2812      C2813   1.401       .  A
C2812      C2817   1.507       .  S
C2813      C2814   1.404       .  A
C2813      H2818   1.084       .  S
C2814      C2815   1.418       .  A
C2815      C2816   1.406       .  A
C2815      C2819   1.509       .  S
C2816      H2820   1.084       .  S
C2817      H2827   1.111       .  S
C2817      H2828   1.110       .  S
C2817      H2829   1.110       .  S
C2819      H2830   1.109       .  S
C2819      H2831   1.111       .  S
C2819      H2832   1.111       .  S
C2833      C2834   1.399       .  A
C2833      C2838   1.400       .  A
C2833      H2843   1.085       .  S
C2834      C2839   1.472       .  S
C2834      C2835   1.406       .  A
C2835      C2836   1.401       .  A
C2835      C2840   1.505       .  S
C2836      C2837   1.406       .  A
C2836      H2841   1.084       .  S
C2837      C2838   1.417       .  A
C2838      C2842   1.509   1_455  S
C2839      C2844   1.406   1_565  A
C2839      C2848   1.400       .  A
C2840      H2856   1.110       .  S
C2840      H2857   1.110       .  S
C2840      H2858   1.111       .  S
C2842      H2853   1.110       .  S
C2842      H2854   1.111       .  S
C2842      H2855   1.110       .  S
C2844      C2845   1.400       .  A
C2844      C2849   1.506   1_545  S
C2845      C2846   1.406       .  A
C2845      H2850   1.084       .  S
C2846      C2847   1.416       .  A
C2847      C2848   1.401   1_545  A
C2847      C2851   1.508       .  S
C2848      H2852   1.084       .  S
C2849      H2859   1.111   1_465  S
C2849      H2860   1.110   1_455  S
C2849      H2861   1.110       .  S
C2851      H2862   1.111       .  S
C2851      H2863   1.110       .  S
C2851      H2864   1.111       .  S
C2865      C2866   1.400       .  A
C2865      C2870   1.400       .  A
C2865      H2875   1.084       .  S
C2866      C2871   1.476       .  S
C2866      C2867   1.411       .  A
C2867      C2868   1.402       .  A
C2867      C2872   1.506       .  S
C2868      C2869   1.402       .  A
C2868      H2873   1.084       .  S
C2869      C2870   1.413       .  A
C2870      C2874   1.508       .  S
C2871      C2876   1.408       .  A
C2871      C2880   1.396       .  A
C2872      H2888   1.110       .  S
C2872      H2889   1.110       .  S
C2872      H2890   1.111       .  S
C2874      H2885   1.109   1_655  S
C2874      H2886   1.111       .  S
C2874      H2887   1.110   1_655  S
C2876      C2877   1.402       .  A
C2876      C2881   1.507       .  S
C2877      C2878   1.409       .  A
C2877      H2882   1.083       .  S
C2878      C2879   1.424       .  A
C2879      C2880   1.402       .  A
C2879      C2883   1.507       .  S
C2880      H2884   1.084       .  S
C2881      H2891   1.111       .  S
C2881      H2892   1.110       .  S
C2881      H2893   1.110       .  S
C2883      H2894   1.111       .  S
C2883      H2895   1.110       .  S
C2883      H2896   1.108       .  S
C2897      C2898   1.399       .  A
C2897      C2902   1.403       .  A
C2897      H2907   1.084       .  S
C2898      C2903   1.473       .  S
C2898      C2899   1.407       .  A
C2899      C2900   1.400       .  A
C2899      C2904   1.507       .  S
C2900      C2901   1.408       .  A
C2900      H2905   1.084       .  S
C2901      C2902   1.419       .  A
C2902      C2906   1.508       .  S
C2903      C2908   1.411       .  A
C2903      C2912   1.396       .  A
C2904      H2920   1.110       .  S
C2904      H2921   1.110       .  S
C2904      H2922   1.111       .  S
C2906      H2917   1.109       .  S
C2906      H2918   1.111       .  S
C2906      H2919   1.110       .  S
C2908      C2909   1.405       .  A
C2908      C2913   1.506       .  S
C2909      C2910   1.402       .  A
C2909      H2914   1.084       .  S
C2910      C2911   1.415       .  A
C2911      C2912   1.395       .  A
C2911      C2915   1.506       .  S
C2912      H2916   1.085       .  S
C2913      H2923   1.111       .  S
C2913      H2924   1.110       .  S
C2913      H2925   1.110       .  S
C2915      H2926   1.110       .  S
C2915      H2927   1.104       .  S
C2915      H2928   1.109       .  S
C2929      C2930   1.400       .  A
C2929      C2934   1.403       .  A
C2929      H2939   1.084       .  S
C2930      C2935   1.474       .  S
C2930      C2931   1.410       .  A
C2931      C2932   1.400       .  A
C2931      C2936   1.507   1_455  S
C2932      C2933   1.403       .  A
C2932      H2937   1.084   1_455  S
C2933      C2934   1.414       .  A
C2934      C2938   1.507       .  S
C2935      C2940   1.409       .  A
C2935      C2944   1.398       .  A
C2936      H2952   1.110       .  S
C2936      H2953   1.110   1_655  S
C2936      H2954   1.111       .  S
C2938      H2949   1.108       .  S
C2938      H2950   1.111       .  S
C2938      H2951   1.111       .  S
C2940      C2941   1.401       .  A
C2940      C2945   1.507       .  S
C2941      C2942   1.405       .  A
C2941      H2946   1.083       .  S
C2942      C2943   1.418       .  A
C2943      C2944   1.402       .  A
C2943      C2947   1.508   1_455  S
C2944      H2948   1.084       .  S
C2945      H2955   1.111       .  S
C2945      H2956   1.110       .  S
C2945      H2957   1.110       .  S
C2947      H2958   1.111       .  S
C2947      H2959   1.110   1_655  S
C2947      H2960   1.108       .  S
C2961      C2962   1.401       .  A
C2961      C2966   1.404       .  A
C2961      H2971   1.084       .  S
C2962      C2967   1.477       .  S
C2962      C2963   1.409       .  A
C2963      C2964   1.401       .  A
C2963      C2968   1.506       .  S
C2964      C2965   1.404       .  A
C2964      H2969   1.084       .  S
C2965      C2966   1.417       .  A
C2966      C2970   1.507       .  S
C2967      C2972   1.409       .  A
C2967      C2976   1.400       .  A
C2968      H2984   1.110       .  S
C2968      H2985   1.110       .  S
C2968      H2986   1.111       .  S
C2970      H2981   1.111       .  S
C2970      H2982   1.108       .  S
C2970      H2983   1.111       .  S
C2972      C2973   1.402       .  A
C2972      C2977   1.507       .  S
C2973      C2974   1.406       .  A
C2973      H2978   1.084       .  S
C2974      C2975   1.420       .  A
C2975      C2976   1.404       .  A
C2975      C2979   1.509       .  S
C2976      H2980   1.084       .  S
C2977      H2987   1.111       .  S
C2977      H2988   1.110       .  S
C2977      H2989   1.110       .  S
C2979      H2990   1.111       .  S
C2979      H2991   1.109       .  S
C2979      H2992   1.111       .  S
C2993      C2994   1.400       .  A
C2993      C2998   1.403       .  A
C2993      H3003   1.084       .  S
C2994      C2999   1.476       .  S
C2994      C2995   1.409       .  A
C2995      C2996   1.400       .  A
C2995      C3000   1.506       .  S
C2996      C2997   1.403       .  A
C2996      H3001   1.084       .  S
C2997      C2998   1.413       .  A
C2998      C3002   1.502       .  S
C2999      C3004   1.406       .  A
C2999      C3008   1.398       .  A
C3000      H3016   1.110       .  S
C3000      H3017   1.110       .  S
C3000      H3018   1.111       .  S
C3002      H3013   1.109       .  S
C3002      H3014   1.110       .  S
C3002      H3015   1.111       .  S
C3004      C3005   1.399       .  A
C3004      C3009   1.508       .  S
C3005      C3006   1.408       .  A
C3005      H3010   1.081       .  S
C3006      C3007   1.424       .  A
C3007      C3008   1.405       .  A
C3007      C3011   1.509       .  S
C3008      H3012   1.084       .  S
C3009      H3019   1.111       .  S
C3009      H3020   1.110       .  S
C3009      H3021   1.110       .  S
C3011      H3022   1.110       .  S
C3011      H3023   1.110       .  S
C3011      H3024   1.111       .  S
C3025      C3026   1.404       .  A
C3025      C3030   1.403       .  A
C3025      H3035   1.085       .  S
C3026      C3031   1.480       .  S
C3026      C3027   1.410       .  A
C3027      C3028   1.402       .  A
C3027      C3032   1.506       .  S
C3028      C3029   1.402       .  A
C3028      H3033   1.084       .  S
C3029      C3030   1.412       .  A
C3030      C3034   1.507       .  S
C3031      C3036   1.410       .  A
C3031      C3040   1.400       .  A
C3032      H3048   1.110       .  S
C3032      H3049   1.110       .  S
C3032      H3050   1.111       .  S
C3034      H3045   1.110       .  S
C3034      H3046   1.111       .  S
C3034      H3047   1.109       .  S
C3036      C3037   1.404       .  A
C3036      C3041   1.506       .  S
C3037      C3038   1.405       .  A
C3037      H3042   1.084       .  S
C3038      C3039   1.419       .  A
C3039      C3040   1.404       .  A
C3039      C3043   1.510       .  S
C3040      H3044   1.084       .  S
C3041      H3051   1.111       .  S
C3041      H3052   1.110       .  S
C3041      H3053   1.110       .  S
C3043      H3054   1.109       .  S
C3043      H3055   1.111       .  S
C3043      H3056   1.111       .  S
C3057      C3058   1.400       .  A
C3057      C3062   1.400       .  A
C3057      H3067   1.084       .  S
C3058      C3063   1.474       .  S
C3058      C3059   1.412       .  A
C3059      C3060   1.403       .  A
C3059      C3064   1.507       .  S
C3060      C3061   1.399       .  A
C3060      H3065   1.084       .  S
C3061      C3062   1.411       .  A
C3062      C3066   1.507       .  S
C3063      C3068   1.408       .  A
C3063      C3072   1.400       .  A
C3064      H3080   1.110       .  S
C3064      H3081   1.110       .  S
C3064      H3082   1.111       .  S
C3066      H3077   1.110       .  S
C3066      H3078   1.111       .  S
C3066      H3079   1.110   1_655  S
C3068      C3069   1.402       .  A
C3068      C3073   1.507       .  S
C3069      C3070   1.407       .  A
C3069      H3074   1.084       .  S
C3070      C3071   1.417       .  A
C3071      C3072   1.400       .  A
C3071      C3075   1.509       .  S
C3072      H3076   1.085       .  S
C3073      H3083   1.111       .  S
C3073      H3084   1.110       .  S
C3073      H3085   1.110       .  S
C3075      H3086   1.111       .  S
C3075      H3087   1.107       .  S
C3075      H3088   1.110       .  S
C3089      C3090   1.401       .  A
C3089      C3094   1.406       .  A
C3089      H3099   1.084   1_455  S
C3090      C3095   1.482       .  S
C3090      C3091   1.410       .  A
C3091      C3092   1.400       .  A
C3091      C3096   1.508       .  S
C3092      C3093   1.405       .  A
C3092      H3097   1.084       .  S
C3093      C3094   1.421       .  A
C3094      C3098   1.508   1_455  S
C3095      C3100   1.412       .  A
C3095      C3104   1.401       .  A
C3096      H3112   1.109       .  S
C3096      H3113   1.110       .  S
C3096      H3114   1.111       .  S
C3098      H3109   1.108       .  S
C3098      H3110   1.111       .  S
C3098      H3111   1.110       .  S
C3100      C3101   1.403       .  A
C3100      C3105   1.507   1_455  S
C3101      C3102   1.405       .  A
C3101      H3106   1.084   1_455  S
C3102      C3103   1.416       .  A
C3103      C3104   1.403       .  A
C3103      C3107   1.507       .  S
C3104      H3108   1.084       .  S
C3105      H3115   1.111       .  S
C3105      H3116   1.109       .  S
C3105      H3117   1.110   1_655  S
C3107      H3118   1.111       .  S
C3107      H3119   1.110       .  S
C3107      H3120   1.109       .  S
C3121      C3122   1.399       .  A
C3121      C3126   1.404       .  A
C3121      H3131   1.084       .  S
C3122      C3127   1.481       .  S
C3122      C3123   1.410       .  A
C3123      C3124   1.403       .  A
C3123      C3128   1.508       .  S
C3124      C3125   1.409       .  A
C3124      H3129   1.084       .  S
C3125      C3126   1.421       .  A
C3126      C3130   1.508       .  S
C3127      C3132   1.411       .  A
C3127      C3136   1.400       .  A
C3128      H3144   1.110       .  S
C3128      H3145   1.110       .  S
C3128      H3146   1.111       .  S
C3130      H3141   1.109       .  S
C3130      H3142   1.111       .  S
C3130      H3143   1.110       .  S
C3132      C3133   1.400       .  A
C3132      C3137   1.507       .  S
C3133      C3134   1.405       .  A
C3133      H3138   1.084       .  S
C3134      C3135   1.423       .  A
C3135      C3136   1.404       .  A
C3135      C3139   1.511       .  S
C3136      H3140   1.084       .  S
C3137      H3147   1.111       .  S
C3137      H3148   1.109       .  S
C3137      H3149   1.110       .  S
C3139      H3150   1.111       .  S
C3139      H3151   1.111       .  S
C3139      H3152   1.109       .  S
C3153      C3154   1.401       .  A
C3153      C3158   1.403       .  A
C3153      H3163   1.084       .  S
C3154      C3159   1.477       .  S
C3154      C3155   1.410       .  A
C3155      C3156   1.402       .  A
C3155      C3160   1.506       .  S
C3156      C3157   1.403       .  A
C3156      H3161   1.084       .  S
C3157      C3158   1.416       .  A
C3158      C3162   1.509       .  S
C3159      C3164   1.409       .  A
C3159      C3168   1.398       .  A
C3160      H3176   1.110       .  S
C3160      H3177   1.110       .  S
C3160      H3178   1.110       .  S
C3162      H3173   1.109       .  S
C3162      H3174   1.111       .  S
C3162      H3175   1.111       .  S
C3164      C3165   1.404       .  A
C3164      C3169   1.506       .  S
C3165      C3166   1.405       .  A
C3165      H3170   1.084       .  S
C3166      C3167   1.418       .  A
C3167      C3168   1.402       .  A
C3167      C3171   1.508       .  S
C3168      H3172   1.084       .  S
C3169      H3179   1.111       .  S
C3169      H3180   1.110       .  S
C3169      H3181   1.110       .  S
C3171      H3182   1.111       .  S
C3171      H3183   1.110       .  S
C3171      H3184   1.108       .  S
C3185      C3186   1.398       .  A
C3185      C3190   1.395   1_565  A
C3185      H3195   1.085       .  S
C3186      C3191   1.472       .  S
C3186      C3187   1.410       .  A
C3187      C3188   1.405   1_565  A
C3187      C3192   1.506       .  S
C3188      C3189   1.403       .  A
C3188      H3193   1.084       .  S
C3189      C3190   1.415       .  A
C3190      C3194   1.510       .  S
C3191      C3196   1.409       .  A
C3191      C3200   1.401       .  A
C3192      H3208   1.110       .  S
C3192      H3209   1.108   1_455  S
C3192      H3210   1.111   1_465  S
C3194      H3205   1.111       .  S
C3194      H3206   1.111       .  S
C3194      H3207   1.109       .  S
C3196      C3197   1.395       .  A
C3196      C3201   1.511   1_455  S
C3197      C3198   1.406       .  A
C3197      H3202   1.084   1_455  S
C3198      C3199   1.419       .  A
C3199      C3200   1.406       .  A
C3199      C3203   1.507       .  S
C3200      H3204   1.084       .  S
C3201      H3211   1.111       .  S
C3201      H3212   1.110       .  S
C3201      H3213   1.108       .  S
C3203      H3214   1.111       .  S
C3203      H3215   1.109       .  S
C3203      H3216   1.110       .  S
C3217      C3218   1.396       .  A
C3217      C3222   1.399       .  A
C3217      H3227   1.085       .  S
C3218      C3223   1.462       .  S
C3218      C3219   1.404       .  A
C3219      C3220   1.395       .  A
C3219      C3224   1.508       .  S
C3220      C3221   1.407       .  A
C3220      H3225   1.084       .  S
C3221      C3222   1.421       .  A
C3222      C3226   1.509       .  S
C3223      C3228   1.403       .  A
C3223      C3232   1.398       .  A
C3224      H3240   1.110       .  S
C3224      H3241   1.110       .  S
C3224      H3242   1.111       .  S
C3226      H3237   1.110       .  S
C3226      H3238   1.111       .  S
C3226      H3239   1.109       .  S
C3228      C3229   1.393       .  A
C3228      C3233   1.508       .  S
C3229      C3230   1.409       .  A
C3229      H3234   1.083       .  S
C3230      C3231   1.418       .  A
C3231      C3232   1.399       .  A
C3231      C3235   1.508       .  S
C3232      H3236   1.084       .  S
C3233      H3243   1.110       .  S
C3233      H3244   1.110       .  S
C3233      H3245   1.110       .  S
C3235      H3246   1.110       .  S
C3235      H3247   1.110       .  S
C3235      H3248   1.111       .  S
C3249      C3250   1.398       .  A
C3249      C3254   1.397       .  A
C3249      H3259   1.085       .  S
C3250      C3255   1.472       .  S
C3250      C3251   1.410       .  A
C3251      C3252   1.403       .  A
C3251      C3256   1.505       .  S
C3252      C3253   1.402       .  A
C3252      H3257   1.084       .  S
C3253      C3254   1.416       .  A
C3254      C3258   1.510       .  S
C3255      C3260   1.406       .  A
C3255      C3264   1.397       .  A
C3256      H3272   1.110       .  S
C3256      H3273   1.110       .  S
C3256      H3274   1.111       .  S
C3258      H3269   1.108       .  S
C3258      H3270   1.111       .  S
C3258      H3271   1.109       .  S
C3260      C3261   1.398       .  A
C3260      C3265   1.508       .  S
C3261      C3262   1.411       .  A
C3261      H3266   1.083       .  S
C3262      C3263   1.422       .  A
C3263      C3264   1.404       .  A
C3263      C3267   1.508       .  S
C3264      H3268   1.084       .  S
C3265      H3275   1.111       .  S
C3265      H3276   1.110       .  S
C3265      H3277   1.110       .  S
C3267      H3278   1.111       .  S
C3267      H3279   1.109       .  S
C3267      H3280   1.110       .  S
C3281      C3282   1.399       .  A
C3281      C3286   1.401       .  A
C3281      H3291   1.084       .  S
C3282      C3287   1.484       .  S
C3282      C3283   1.413       .  A
C3283      C3284   1.409       .  A
C3283      C3288   1.505       .  S
C3284      C3285   1.406       .  A
C3284      H3289   1.083       .  S
C3285      C3286   1.417       .  A
C3286      C3290   1.509       .  S
C3287      C3292   1.411       .  A
C3287      C3296   1.399       .  A
C3288      H3304   1.110       .  S
C3288      H3305   1.110       .  S
C3288      H3306   1.111       .  S
C3290      H3301   1.109       .  S
C3290      H3302   1.111       .  S
C3290      H3303   1.111       .  S
C3292      C3293   1.408       .  A
C3292      C3297   1.506       .  S
C3293      C3294   1.409       .  A
C3293      H3298   1.084       .  S
C3294      C3295   1.420       .  A
C3295      C3296   1.404       .  A
C3295      C3299   1.508       .  S
C3296      H3300   1.084       .  S
C3297      H3307   1.111       .  S
C3297      H3308   1.110       .  S
C3297      H3309   1.110       .  S
C3299      H3310   1.111       .  S
C3299      H3311   1.109       .  S
C3299      H3312   1.111       .  S
C3313      C3314   1.399       .  A
C3313      C3318   1.402       .  A
C3313      H3323   1.084       .  S
C3314      C3319   1.479       .  S
C3314      C3315   1.410       .  A
C3315      C3316   1.405       .  A
C3315      C3320   1.507       .  S
C3316      C3317   1.404       .  A
C3316      H3321   1.076       .  S
C3317      C3318   1.415       .  A
C3318      C3322   1.504       .  S
C3319      C3324   1.408       .  A
C3319      C3328   1.402       .  A
C3320      H3336   1.110       .  S
C3320      H3337   1.109       .  S
C3320      H3338   1.111       .  S
C3322      H3333   1.111       .  S
C3322      H3334   1.111       .  S
C3322      H3335   1.109       .  S
C3324      C3325   1.401       .  A
C3324      C3329   1.507       .  S
C3325      C3326   1.407       .  A
C3325      H3330   1.083       .  S
C3326      C3327   1.417       .  A
C3327      C3328   1.406       .  A
C3327      C3331   1.507       .  S
C3328      H3332   1.084       .  S
C3329      H3339   1.111       .  S
C3329      H3340   1.110       .  S
C3329      H3341   1.108       .  S
C3331      H3342   1.111       .  S
C3331      H3343   1.111       .  S
C3331      H3344   1.109       .  S
C3345      C3346   1.396       .  A
C3345      C3350   1.402       .  A
C3345      H3355   1.085       .  S
C3346      C3351   1.473       .  S
C3346      C3347   1.404       .  A
C3347      C3348   1.401       .  A
C3347      C3352   1.507       .  S
C3348      C3349   1.414       .  A
C3348      H3353   1.083       .  S
C3349      C3350   1.425       .  A
C3350      C3354   1.506       .  S
C3351      C3356   1.409       .  A
C3351      C3360   1.402       .  A
C3352      H3368   1.110       .  S
C3352      H3369   1.110       .  S
C3352      H3370   1.111       .  S
C3354      H3365   1.111       .  S
C3354      H3366   1.109   1_545  S
C3354      H3367   1.110       .  S
C3356      C3357   1.396       .  A
C3356      C3361   1.508       .  S
C3357      C3358   1.401       .  A
C3357      H3362   1.085       .  S
C3358      C3359   1.416       .  A
C3359      C3360   1.404       .  A
C3359      C3363   1.508       .  S
C3360      H3364   1.084       .  S
C3361      H3371   1.111       .  S
C3361      H3372   1.110       .  S
C3361      H3373   1.110       .  S
C3363      H3374   1.111       .  S
C3363      H3375   1.107       .  S
C3363      H3376   1.110       .  S
C3377      C3378   1.397       .  A
C3377      C3382   1.405       .  A
C3377      H3387   1.084       .  S
C3378      C3383   1.475       .  S
C3378      C3379   1.405       .  A
C3379      C3380   1.398       .  A
C3379      C3384   1.507       .  S
C3380      C3381   1.409       .  A
C3380      H3385   1.079       .  S
C3381      C3382   1.427       .  A
C3382      C3386   1.508       .  S
C3383      C3388   1.407       .  A
C3383      C3392   1.401       .  A
C3384      H3400   1.110       .  S
C3384      H3401   1.110       .  S
C3384      H3402   1.111       .  S
C3386      H3397   1.111       .  S
C3386      H3398   1.110       .  S
C3386      H3399   1.109       .  S
C3388      C3389   1.399       .  A
C3388      C3393   1.508       .  S
C3389      C3390   1.408       .  A
C3389      H3394   1.084       .  S
C3390      C3391   1.417       .  A
C3391      C3392   1.405       .  A
C3391      C3395   1.507       .  S
C3392      H3396   1.084       .  S
C3393      H3403   1.111       .  S
C3393      H3404   1.110       .  S
C3393      H3405   1.110       .  S
C3395      H3406   1.109       .  S
C3395      H3407   1.110       .  S
C3395      H3408   1.111       .  S
C3409      C3410   1.400       .  A
C3409      C3414   1.402       .  A
C3409      H3419   1.084       .  S
C3410      C3415   1.477       .  S
C3410      C3411   1.409       .  A
C3411      C3412   1.403       .  A
C3411      C3416   1.506       .  S
C3412      C3413   1.405       .  A
C3412      H3417   1.084   1_545  S
C3413      C3414   1.417       .  A
C3414      C3418   1.508       .  S
C3415      C3420   1.410       .  A
C3415      C3424   1.399       .  A
C3416      H3432   1.110       .  S
C3416      H3433   1.110       .  S
C3416      H3434   1.111       .  S
C3418      H3429   1.109       .  S
C3418      H3430   1.111       .  S
C3418      H3431   1.111       .  S
C3420      C3421   1.405       .  A
C3420      C3425   1.505       .  S
C3421      C3422   1.405       .  A
C3421      H3426   1.084       .  S
C3422      C3423   1.418       .  A
C3423      C3424   1.401       .  A
C3423      C3427   1.510       .  S
C3424      H3428   1.084       .  S
C3425      H3435   1.111       .  S
C3425      H3436   1.110       .  S
C3425      H3437   1.110       .  S
C3427      H3438   1.111       .  S
C3427      H3439   1.110       .  S
C3427      H3440   1.110       .  S
C3441      C3442   1.403       .  A
C3441      C3446   1.405       .  A
C3441      H3451   1.084       .  S
C3442      C3447   1.479       .  S
C3442      C3443   1.410       .  A
C3443      C3444   1.400       .  A
C3443      C3448   1.506       .  S
C3444      C3445   1.401       .  A
C3444      H3449   1.085       .  S
C3445      C3446   1.414       .  A
C3446      C3450   1.506       .  S
C3447      C3452   1.406       .  A
C3447      C3456   1.399       .  A
C3448      H3464   1.110       .  S
C3448      H3465   1.110       .  S
C3448      H3466   1.111       .  S
C3450      H3461   1.111       .  S
C3450      H3462   1.110       .  S
C3450      H3463   1.108       .  S
C3452      C3453   1.402       .  A
C3452      C3457   1.507       .  S
C3453      C3454   1.410       .  A
C3453      H3458   1.083       .  S
C3454      C3455   1.424       .  A
C3455      C3456   1.405       .  A
C3455      C3459   1.509       .  S
C3456      H3460   1.084       .  S
C3457      H3467   1.111       .  S
C3457      H3468   1.110       .  S
C3457      H3469   1.110       .  S
C3459      H3470   1.109       .  S
C3459      H3471   1.110       .  S
C3459      H3472   1.111       .  S
C3473      C3474   1.398       .  A
C3473      C3478   1.401       .  A
C3473      H3483   1.085       .  S
C3474      C3479   1.480       .  S
C3474      C3475   1.408       .  A
C3475      C3476   1.405       .  A
C3475      C3480   1.507       .  S
C3476      C3477   1.413       .  A
C3476      H3481   1.081       .  S
C3477      C3478   1.421       .  A
C3478      C3482   1.507   1_545  S
C3479      C3484   1.410       .  A
C3479      C3488   1.406       .  A
C3480      H3496   1.109       .  S
C3480      H3497   1.111       .  S
C3480      H3498   1.111       .  S
C3482      H3493   1.110       .  S
C3482      H3494   1.111   1_565  S
C3482      H3495   1.109       .  S
C3484      C3485   1.396       .  A
C3484      C3489   1.509       .  S
C3485      C3486   1.403       .  A
C3485      H3490   1.084       .  S
C3486      C3487   1.413       .  A
C3487      C3488   1.408       .  A
C3487      C3491   1.507       .  S
C3488      H3492   1.084       .  S
C3489      H3499   1.111       .  S
C3489      H3500   1.109       .  S
C3489      H3501   1.110       .  S
C3491      H3502   1.110       .  S
C3491      H3503   1.110       .  S
C3491      H3504   1.111       .  S
C3505      C3506   1.405       .  A
C3505      C3510   1.406       .  A
C3505      H3515   1.084       .  S
C3506      C3511   1.485       .  S
C3506      C3507   1.412       .  A
C3507      C3508   1.401       .  A
C3507      C3512   1.507       .  S
C3508      C3509   1.402       .  A
C3508      H3513   1.084       .  S
C3509      C3510   1.411       .  A
C3510      C3514   1.505       .  S
C3511      C3516   1.412       .  A
C3511      C3520   1.401       .  A
C3512      H3528   1.109       .  S
C3512      H3529   1.110       .  S
C3512      H3530   1.111       .  S
C3514      H3525   1.111       .  S
C3514      H3526   1.110       .  S
C3514      H3527   1.108       .  S
C3516      C3517   1.404       .  A
C3516      C3521   1.507       .  S
C3517      C3518   1.405       .  A
C3517      H3522   1.084       .  S
C3518      C3519   1.418       .  A
C3519      C3520   1.405       .  A
C3519      C3523   1.505       .  S
C3520      H3524   1.084       .  S
C3521      H3531   1.111       .  S
C3521      H3532   1.109       .  S
C3521      H3533   1.110       .  S
C3523      H3534   1.107       .  S
C3523      H3535   1.110       .  S
C3523      H3536   1.111       .  S
C3537      C3538   1.401       .  A
C3537      C3542   1.405       .  A
C3537      H3547   1.084       .  S
C3538      C3543   1.479       .  S
C3538      C3539   1.413       .  A
C3539      C3540   1.401       .  A
C3539      C3544   1.508       .  S
C3540      C3541   1.402       .  A
C3540      H3545   1.084       .  S
C3541      C3542   1.416       .  A
C3542      C3546   1.509       .  S
C3543      C3548   1.409       .  A
C3543      C3552   1.402       .  A
C3544      H3560   1.109       .  S
C3544      H3561   1.110       .  S
C3544      H3562   1.110       .  S
C3546      H3557   1.111       .  S
C3546      H3558   1.109       .  S
C3546      H3559   1.111       .  S
C3548      C3549   1.402       .  A
C3548      C3553   1.506       .  S
C3549      C3550   1.405       .  A
C3549      H3554   1.084       .  S
C3550      C3551   1.416       .  A
C3551      C3552   1.401       .  A
C3551      C3555   1.507       .  S
C3552      H3556   1.085       .  S
C3553      H3563   1.111       .  S
C3553      H3564   1.110       .  S
C3553      H3565   1.110       .  S
C3555      H3566   1.110       .  S
C3555      H3567   1.105       .  S
C3555      H3568   1.111       .  S
C3569      C3570   1.398       .  A
C3569      C3574   1.402       .  A
C3569      H3579   1.084       .  S
C3570      C3575   1.474       .  S
C3570      C3571   1.408       .  A
C3571      C3572   1.401       .  A
C3571      C3576   1.507       .  S
C3572      C3573   1.405       .  A
C3572      H3577   1.084       .  S
C3573      C3574   1.419       .  A
C3574      C3578   1.506       .  S
C3575      C3580   1.408       .  A
C3575      C3584   1.397       .  A
C3576      H3592   1.110       .  S
C3576      H3593   1.111       .  S
C3576      H3594   1.111       .  S
C3578      H3589   1.111       .  S
C3578      H3590   1.110       .  S
C3578      H3591   1.109       .  S
C3580      C3581   1.402       .  A
C3580      C3585   1.506       .  S
C3581      C3582   1.407       .  A
C3581      H3586   1.084       .  S
C3582      C3583   1.420       .  A
C3583      C3584   1.400       .  A
C3583      C3587   1.509       .  S
C3584      H3588   1.084       .  S
C3585      H3595   1.111       .  S
C3585      H3596   1.110       .  S
C3585      H3597   1.110       .  S
C3587      H3598   1.111       .  S
C3587      H3599   1.110       .  S
C3587      H3600   1.109       .  S
C3601      C3602   1.402       .  A
C3601      C3606   1.401       .  A
C3601      H3611   1.084       .  S
C3602      C3607   1.470       .  S
C3602      C3603   1.409       .  A
C3603      C3604   1.398       .  A
C3603      C3608   1.507       .  S
C3604      C3605   1.401       .  A
C3604      H3609   1.085       .  S
C3605      C3606   1.410       .  A
C3606      C3610   1.503       .  S
C3607      C3612   1.407       .  A
C3607      C3616   1.400       .  A
C3608      H3624   1.110       .  S
C3608      H3625   1.110       .  S
C3608      H3626   1.111       .  S
C3610      H3621   1.111       .  S
C3610      H3622   1.105       .  S
C3610      H3623   1.111       .  S
C3612      C3613   1.396       .  A
C3612      C3617   1.508       .  S
C3613      C3614   1.403       .  A
C3613      H3618   1.082       .  S
C3614      C3615   1.415       .  A
C3615      C3616   1.403       .  A
C3615      C3619   1.507       .  S
C3616      H3620   1.084       .  S
C3617      H3627   1.111       .  S
C3617      H3628   1.110       .  S
C3617      H3629   1.110       .  S
C3619      H3630   1.109       .  S
C3619      H3631   1.110       .  S
C3619      H3632   1.111       .  S
C3633      C3634   1.396       .  A
C3633      C3638   1.398       .  A
C3633      H3643   1.085       .  S
C3634      C3639   1.468       .  S
C3634      C3635   1.407       .  A
C3635      C3636   1.401       .  A
C3635      C3640   1.507       .  S
C3636      C3637   1.406       .  A
C3636      H3641   1.084       .  S
C3637      C3638   1.420       .  A
C3638      C3642   1.508       .  S
C3639      C3644   1.408       .  A
C3639      C3648   1.402       .  A
C3640      H3656   1.110       .  S
C3640      H3657   1.111       .  S
C3640      H3658   1.111       .  S
C3642      H3653   1.109       .  S
C3642      H3654   1.111       .  S
C3642      H3655   1.110       .  S
C3644      C3645   1.394       .  A
C3644      C3649   1.507       .  S
C3645      C3646   1.401       .  A
C3645      H3650   1.085       .  S
C3646      C3647   1.411       .  A
C3647      C3648   1.399       .  A
C3647      C3651   1.507       .  S
C3648      H3652   1.085       .  S
C3649      H3659   1.110       .  S
C3649      H3660   1.109       .  S
C3649      H3661   1.110       .  S
C3651      H3662   1.111       .  S
C3651      H3663   1.108       .  S
C3651      H3664   1.109       .  S
C3665      C3666   1.398       .  A
C3665      C3670   1.402       .  A
C3665      H3675   1.084       .  S
C3666      C3671   1.478       .  S
C3666      C3667   1.409       .  A
C3667      C3668   1.404       .  A
C3667      C3672   1.507       .  S
C3668      C3669   1.408       .  A
C3668      H3673   1.084       .  S
C3669      C3670   1.420       .  A
C3670      C3674   1.508       .  S
C3671      C3676   1.410       .  A
C3671      C3680   1.400       .  A
C3672      H3688   1.110       .  S
C3672      H3689   1.111       .  S
C3672      H3690   1.111       .  S
C3674      H3685   1.109       .  S
C3674      H3686   1.111       .  S
C3674      H3687   1.110       .  S
C3676      C3677   1.400       .  A
C3676      C3681   1.507       .  S
C3677      C3678   1.403       .  A
C3677      H3682   1.081       .  S
C3678      C3679   1.417       .  A
C3679      C3680   1.404       .  A
C3679      C3683   1.506       .  S
C3680      H3684   1.084       .  S
C3681      H3691   1.111       .  S
C3681      H3692   1.109       .  S
C3681      H3693   1.110       .  S
C3683      H3694   1.111       .  S
C3683      H3695   1.110       .  S
C3683      H3696   1.109       .  S
C3697      C3698   1.402       .  A
C3697      C3702   1.407       .  A
C3697      H3707   1.084       .  S
C3698      C3703   1.482       .  S
C3698      C3699   1.410       .  A
C3699      C3700   1.401       .  A
C3699      C3704   1.506       .  S
C3700      C3701   1.403       .  A
C3700      H3705   1.084       .  S
C3701      C3702   1.421       .  A
C3702      C3706   1.510       .  S
C3703      C3708   1.409       .  A
C3703      C3712   1.401       .  A
C3704      H3720   1.110       .  S
C3704      H3721   1.109       .  S
C3704      H3722   1.111       .  S
C3706      H3717   1.111       .  S
C3706      H3718   1.109       .  S
C3706      H3719   1.111       .  S
C3708      C3709   1.405       .  A
C3708      C3713   1.506       .  S
C3709      C3710   1.405       .  A
C3709      H3714   1.084       .  S
C3710      C3711   1.417       .  A
C3711      C3712   1.405       .  A
C3711      C3715   1.508       .  S
C3712      H3716   1.084       .  S
C3713      H3723   1.111       .  S
C3713      H3724   1.111       .  S
C3713      H3725   1.109       .  S
C3715      H3726   1.110       .  S
C3715      H3727   1.110       .  S
C3715      H3728   1.111       .  S
C3729      C3730   1.403       .  A
C3729      C3734   1.403       .  A
C3729      H3739   1.084       .  S
C3730      C3735   1.475       .  S
C3730      C3731   1.410       .  A
C3731      C3732   1.400       .  A
C3731      C3736   1.506       .  S
C3732      C3733   1.401       .  A
C3732      H3737   1.085       .  S
C3733      C3734   1.409       .  A
C3734      C3738   1.503       .  S
C3735      C3740   1.409       .  A
C3735      C3744   1.399       .  A
C3736      H3752   1.110       .  S
C3736      H3753   1.109       .  S
C3736      H3754   1.111       .  S
C3738      H3749   1.110       .  S
C3738      H3750   1.111       .  S
C3738      H3751   1.106       .  S
C3740      C3741   1.403       .  A
C3740      C3745   1.506       .  S
C3741      C3742   1.406       .  A
C3741      H3746   1.084       .  S
C3742      C3743   1.415       .  A
C3743      C3744   1.401       .  A
C3743      C3747   1.506       .  S
C3744      H3748   1.084       .  S
C3745      H3755   1.111       .  S
C3745      H3756   1.110       .  S
C3745      H3757   1.110       .  S
C3747      H3758   1.111       .  S
C3747      H3759   1.108       .  S
C3747      H3760   1.110       .  S
C3761      C3762   1.402       .  A
C3761      C3766   1.401       .  A
C3761      H3771   1.084       .  S
C3762      C3767   1.473       .  S
C3762      C3763   1.409       .  A
C3763      C3764   1.401       .  A
C3763      C3768   1.506       .  S
C3764      C3765   1.402       .  A
C3764      H3769   1.084       .  S
C3765      C3766   1.409       .  A
C3766      C3770   1.506       .  S
C3767      C3772   1.409       .  A
C3767      C3776   1.397       .  A
C3768      H3784   1.110       .  S
C3768      H3785   1.110       .  S
C3768      H3786   1.111       .  S
C3770      H3781   1.108       .  S
C3770      H3782   1.111       .  S
C3770      H3783   1.111       .  S
C3772      C3773   1.403       .  A
C3772      C3777   1.506       .  S
C3773      C3774   1.404       .  A
C3773      H3778   1.084       .  S
C3774      C3775   1.420       .  A
C3775      C3776   1.398       .  A
C3775      C3779   1.509       .  S
C3776      H3780   1.085       .  S
C3777      H3787   1.110       .  S
C3777      H3788   1.110       .  S
C3777      H3789   1.110       .  S
C3779      H3790   1.111       .  S
C3779      H3791   1.102       .  S
C3779      H3792   1.110       .  S
C3793      C3794   1.397       .  A
C3793      C3798   1.402       .  A
C3793      H3803   1.084       .  S
C3794      C3799   1.474       .  S
C3794      C3795   1.408       .  A
C3795      C3796   1.401       .  A
C3795      C3800   1.507   1_565  S
C3796      C3797   1.408       .  A
C3796      H3801   1.084   1_565  S
C3797      C3798   1.421       .  A
C3798      C3802   1.507       .  S
C3799      C3804   1.410       .  A
C3799      C3808   1.398       .  A
C3800      H3816   1.110       .  S
C3800      H3817   1.110       .  S
C3800      H3818   1.111       .  S
C3802      H3813   1.109       .  S
C3802      H3814   1.111       .  S
C3802      H3815   1.110       .  S
C3804      C3805   1.403       .  A
C3804      C3809   1.506       .  S
C3805      C3806   1.404       .  A
C3805      H3810   1.084       .  S
C3806      C3807   1.416       .  A
C3807      C3808   1.401       .  A
C3807      C3811   1.508       .  S
C3808      H3812   1.084       .  S
C3809      H3819   1.111       .  S
C3809      H3820   1.110       .  S
C3809      H3821   1.110       .  S
C3811      H3822   1.111   1_565  S
C3811      H3823   1.111       .  S
C3811      H3824   1.109   1_565  S
C3825      C3826   1.398       .  A
C3825      C3830   1.404       .  A
C3825      H3835   1.084       .  S
C3826      C3831   1.474       .  S
C3826      C3827   1.406       .  A
C3827      C3828   1.399       .  A
C3827      C3832   1.508       .  S
C3828      C3829   1.410       .  A
C3828      H3833   1.083       .  S
C3829      C3830   1.422       .  A
C3830      C3834   1.508       .  S
C3831      C3836   1.409       .  A
C3831      C3840   1.400       .  A
C3832      H3848   1.110       .  S
C3832      H3849   1.110       .  S
C3832      H3850   1.111       .  S
C3834      H3845   1.111       .  S
C3834      H3846   1.109   1_545  S
C3834      H3847   1.110   1_545  S
C3836      C3837   1.402       .  A
C3836      C3841   1.506       .  S
C3837      C3838   1.402       .  A
C3837      H3842   1.084       .  S
C3838      C3839   1.414       .  A
C3839      C3840   1.399       .  A
C3839      C3843   1.509       .  S
C3840      H3844   1.085       .  S
C3841      H3851   1.111       .  S
C3841      H3852   1.110       .  S
C3841      H3853   1.110       .  S
C3843      H3854   1.111       .  S
C3843      H3855   1.108       .  S
C3843      H3856   1.110       .  S
C3857      C3858   1.400       .  A
C3857      C3862   1.402       .  A
C3857      H3867   1.084       .  S
C3858      C3863   1.478       .  S
C3858      C3859   1.412       .  A
C3859      C3860   1.402       .  A
C3859      C3864   1.507       .  S
C3860      C3861   1.403       .  A
C3860      H3865   1.084       .  S
C3861      C3862   1.416       .  A
C3862      C3866   1.507       .  S
C3863      C3868   1.411       .  A
C3863      C3872   1.401       .  A
C3864      H3880   1.110       .  S
C3864      H3881   1.110       .  S
C3864      H3882   1.111       .  S
C3866      H3877   1.110       .  S
C3866      H3878   1.110       .  S
C3866      H3879   1.107       .  S
C3868      C3869   1.403       .  A
C3868      C3873   1.506       .  S
C3869      C3870   1.404       .  A
C3869      H3874   1.084       .  S
C3870      C3871   1.415       .  A
C3871      C3872   1.402       .  A
C3871      C3875   1.509       .  S
C3872      H3876   1.084       .  S
C3873      H3883   1.111       .  S
C3873      H3884   1.110       .  S
C3873      H3885   1.110       .  S
C3875      H3886   1.109       .  S
C3875      H3887   1.111       .  S
C3875      H3888   1.111       .  S
C3889      C3890   1.398       .  A
C3889      C3894   1.401       .  A
C3889      H3899   1.084   1_565  S
C3890      C3895   1.468   1_556  S
C3890      C3891   1.406       .  A
C3891      C3892   1.396       .  A
C3891      C3896   1.508       .  S
C3892      C3893   1.407       .  A
C3892      H3897   1.082       .  S
C3893      C3894   1.418       .  A
C3894      C3898   1.508   1_565  S
C3895      C3900   1.409       .  A
C3895      C3904   1.398       .  A
C3896      H3912   1.110   1_556  S
C3896      H3913   1.110   1_556  S
C3896      H3914   1.111       .  S
C3898      H3909   1.108       .  S
C3898      H3910   1.111       .  S
C3898      H3911   1.110       .  S
C3900      C3901   1.396       .  A
C3900      C3905   1.508   1_565  S
C3901      C3902   1.402       .  A
C3901      H3906   1.084   1_565  S
C3902      C3903   1.415       .  A
C3903      C3904   1.400       .  A
C3903      C3907   1.506       .  S
C3904      H3908   1.085       .  S
C3905      H3915   1.111       .  S
C3905      H3916   1.110   1_554  S
C3905      H3917   1.110   1_544  S
C3907      H3918   1.111       .  S
C3907      H3919   1.108       .  S
C3907      H3920   1.110       .  S
C3921      C3922   1.398       .  A
C3921      C3926   1.405       .  A
C3921      H3931   1.084       .  S
C3922      C3927   1.470       .  S
C3922      C3923   1.404       .  A
C3923      C3924   1.394       .  A
C3923      C3928   1.508       .  S
C3924      C3925   1.409       .  A
C3924      H3929   1.082       .  S
C3925      C3926   1.425       .  A
C3926      C3930   1.509   1_545  S
C3927      C3932   1.411       .  A
C3927      C3936   1.397       .  A
C3928      H3944   1.110       .  S
C3928      H3945   1.110       .  S
C3928      H3946   1.111       .  S
C3930      H3941   1.110       .  S
C3930      H3942   1.111   1_565  S
C3930      H3943   1.110       .  S
C3932      C3933   1.402       .  A
C3932      C3937   1.506       .  S
C3933      C3934   1.400       .  A
C3933      H3938   1.084       .  S
C3934      C3935   1.415       .  A
C3935      C3936   1.395       .  A
C3935      C3939   1.509       .  S
C3936      H3940   1.085       .  S
C3937      H3947   1.111       .  S
C3937      H3948   1.110       .  S
C3937      H3949   1.110       .  S
C3939      H3950   1.110       .  S
C3939      H3951   1.106       .  S
C3939      H3952   1.111       .  S
C3953      C3954   1.397       .  A
C3953      C3958   1.397       .  A
C3953      H3963   1.084       .  S
C3954      C3959   1.462       .  S
C3954      C3955   1.408       .  A
C3955      C3956   1.397       .  A
C3955      C3960   1.507       .  S
C3956      C3957   1.400       .  A
C3956      H3961   1.084       .  S
C3957      C3958   1.413       .  A
C3958      C3962   1.507       .  S
C3959      C3964   1.409       .  A
C3959      C3968   1.398       .  A
C3960      H3976   1.110       .  S
C3960      H3977   1.110       .  S
C3960      H3978   1.111       .  S
C3962      H3973   1.111       .  S
C3962      H3974   1.108       .  S
C3962      H3975   1.110       .  S
C3964      C3965   1.397       .  A
C3964      C3969   1.507       .  S
C3965      C3966   1.399       .  A
C3965      H3970   1.085       .  S
C3966      C3967   1.413       .  A
C3967      C3968   1.395       .  A
C3967      C3971   1.510       .  S
C3968      H3972   1.085       .  S
C3969      H3979   1.111       .  S
C3969      H3980   1.110       .  S
C3969      H3981   1.110       .  S
C3971      H3982   1.110       .  S
C3971      H3983   1.108       .  S
C3971      H3984   1.111       .  S
C3985      C3986   1.399       .  A
C3985      C3990   1.404       .  A
C3985      H3995   1.084       .  S
C3986      C3991   1.482       .  S
C3986      C3987   1.411       .  A
C3987      C3988   1.406       .  A
C3987      C3992   1.506   1_565  S
C3988      C3989   1.405       .  A
C3988      H3993   1.084   1_565  S
C3989      C3990   1.417       .  A
C3990      C3994   1.507       .  S
C3991      C3996   1.409       .  A
C3991      C4000   1.401       .  A
C3992      H4008   1.110   1_545  S
C3992      H4009   1.110       .  S
C3992      H4010   1.111       .  S
C3994      H4005   1.111       .  S
C3994      H4006   1.108       .  S
C3994      H4007   1.110       .  S
C3996      C3997   1.403       .  A
C3996      C4001   1.506   1_565  S
C3997      C3998   1.405       .  A
C3997      H4002   1.084       .  S
C3998      C3999   1.416       .  A
C3999      C4000   1.405       .  A
C3999      C4003   1.507       .  S
C4000      H4004   1.084       .  S
C4001      H4011   1.111       .  S
C4001      H4012   1.110   1_545  S
C4001      H4013   1.110       .  S
C4003      H4014   1.109       .  S
C4003      H4015   1.111       .  S
C4003      H4016   1.111       .  S
C4017      C4018   1.398       .  A
C4017      C4022   1.403       .  A
C4017      H4027   1.084       .  S
C4018      C4023   1.482       .  S
C4018      C4019   1.410       .  A
C4019      C4020   1.406       .  A
C4019      C4024   1.506       .  S
C4020      C4021   1.407       .  A
C4020      H4025   1.083   1_545  S
C4021      C4022   1.423       .  A
C4022      C4026   1.509       .  S
C4023      C4028   1.411       .  A
C4023      C4032   1.401       .  A
C4024      H4040   1.110       .  S
C4024      H4041   1.109       .  S
C4024      H4042   1.111       .  S
C4026      H4037   1.111       .  S
C4026      H4038   1.110       .  S
C4026      H4039   1.110       .  S
C4028      C4029   1.404       .  A
C4028      C4033   1.508       .  S
C4029      C4030   1.406       .  A
C4029      H4034   1.085       .  S
C4030      C4031   1.416       .  A
C4031      C4032   1.404       .  A
C4031      C4035   1.508       .  S
C4032      H4036   1.084       .  S
C4033      H4043   1.111       .  S
C4033      H4044   1.110       .  S
C4033      H4045   1.109       .  S
C4035      H4046   1.110       .  S
C4035      H4047   1.107       .  S
C4035      H4048   1.111       .  S
C4049      C4050   1.400       .  A
C4049      C4054   1.405       .  A
C4049      H4059   1.084       .  S
C4050      C4055   1.482       .  S
C4050      C4051   1.410       .  A
C4051      C4052   1.404       .  A
C4051      C4056   1.507       .  S
C4052      C4053   1.407       .  A
C4052      H4057   1.083       .  S
C4053      C4054   1.419       .  A
C4054      C4058   1.507       .  S
C4055      C4060   1.411       .  A
C4055      C4064   1.401       .  A
C4056      H4072   1.110       .  S
C4056      H4073   1.110       .  S
C4056      H4074   1.111       .  S
C4058      H4069   1.108       .  S
C4058      H4070   1.111       .  S
C4058      H4071   1.110       .  S
C4060      C4061   1.403       .  A
C4060      C4065   1.507       .  S
C4061      C4062   1.405       .  A
C4061      H4066   1.084       .  S
C4062      C4063   1.420       .  A
C4063      C4064   1.404       .  A
C4063      C4067   1.509       .  S
C4064      H4068   1.085       .  S
C4065      H4075   1.111       .  S
C4065      H4076   1.110       .  S
C4065      H4077   1.110       .  S
C4067      H4078   1.111       .  S
C4067      H4079   1.106       .  S
C4067      H4080   1.110       .  S
C4081      C4082   1.398       .  A
C4081      C4086   1.398       .  A
C4081      H4091   1.085       .  S
C4082      C4087   1.475   1_556  S
C4082      C4083   1.409       .  A
C4083      C4084   1.405       .  A
C4083      C4088   1.505       .  S
C4084      C4085   1.405       .  A
C4084      H4089   1.084       .  S
C4085      C4086   1.415       .  A
C4086      C4090   1.508       .  S
C4087      C4092   1.407       .  A
C4087      C4096   1.397       .  A
C4088      H4104   1.110       .  S
C4088      H4105   1.110       .  S
C4088      H4106   1.111       .  S
C4090      H4101   1.107   1_565  S
C4090      H4102   1.111   1_565  S
C4090      H4103   1.111       .  S
C4092      C4093   1.401       .  A
C4092      C4097   1.506   1_565  S
C4093      C4094   1.407       .  A
C4093      H4098   1.084       .  S
C4094      C4095   1.425       .  A
C4095      C4096   1.403       .  A
C4095      C4099   1.510       .  S
C4096      H4100   1.085       .  S
C4097      H4107   1.111       .  S
C4097      H4108   1.110       .  S
C4097      H4109   1.110   1_545  S
C4099      H4110   1.110       .  S
C4099      H4111   1.110       .  S
C4099      H4112   1.111       .  S
C4113      C4114   1.401       .  A
C4113      C4118   1.403       .  A
C4113      H4123   1.085       .  S
C4114      C4119   1.485       .  S
C4114      C4115   1.411       .  A
C4115      C4116   1.405       .  A
C4115      C4120   1.506       .  S
C4116      C4117   1.406       .  A
C4116      H4121   1.084       .  S
C4117      C4118   1.419       .  A
C4118      C4122   1.508   1_545  S
C4119      C4124   1.413       .  A
C4119      C4128   1.401       .  A
C4120      H4136   1.109       .  S
C4120      H4137   1.110       .  S
C4120      H4138   1.111       .  S
C4122      H4133   1.111       .  S
C4122      H4134   1.111   1_565  S
C4122      H4135   1.107       .  S
C4124      C4125   1.405       .  A
C4124      C4129   1.506       .  S
C4125      C4126   1.401       .  A
C4125      H4130   1.084       .  S
C4126      C4127   1.418       .  A
C4127      C4128   1.403       .  A
C4127      C4131   1.509       .  S
C4128      H4132   1.085       .  S
C4129      H4139   1.111       .  S
C4129      H4140   1.109       .  S
C4129      H4141   1.110       .  S
C4131      H4142   1.111       .  S
C4131      H4143   1.106       .  S
C4131      H4144   1.110       .  S
C4145      C4146   1.398       .  A
C4145      C4150   1.397       .  A
C4145      H4155   1.084       .  S
C4146      C4151   1.471       .  S
C4146      C4147   1.411       .  A
C4147      C4148   1.402       .  A
C4147      C4152   1.509       .  S
C4148      C4149   1.405       .  A
C4148      H4153   1.084       .  S
C4149      C4150   1.416       .  A
C4150      C4154   1.508       .  S
C4151      C4156   1.406       .  A
C4151      C4160   1.399       .  A
C4152      H4168   1.110       .  S
C4152      H4169   1.111       .  S
C4152      H4170   1.111       .  S
C4154      H4165   1.111       .  S
C4154      H4166   1.110       .  S
C4154      H4167   1.109       .  S
C4156      C4157   1.395       .  A
C4156      C4161   1.509       .  S
C4157      C4158   1.411       .  A
C4157      H4162   1.084       .  S
C4158      C4159   1.421       .  A
C4159      C4160   1.403       .  A
C4159      C4163   1.508       .  S
C4160      H4164   1.084       .  S
C4161      H4171   1.111       .  S
C4161      H4172   1.109       .  S
C4161      H4173   1.110       .  S
C4163      H4174   1.110       .  S
C4163      H4175   1.110       .  S
C4163      H4176   1.111       .  S
C4177      C4178   1.399       .  A
C4177      C4182   1.404       .  A
C4177      H4187   1.084       .  S
C4178      C4183   1.480       .  S
C4178      C4179   1.410   1_556  A
C4179      C4180   1.404       .  A
C4179      C4184   1.507       .  S
C4180      C4181   1.406   1_554  A
C4180      H4185   1.084       .  S
C4181      C4182   1.419       .  A
C4182      C4186   1.508       .  S
C4183      C4188   1.410   1_556  A
C4183      C4192   1.401       .  A
C4184      H4200   1.110       .  S
C4184      H4201   1.110       .  S
C4184      H4202   1.111       .  S
C4186      H4197   1.111       .  S
C4186      H4198   1.109       .  S
C4186      H4199   1.110       .  S
C4188      C4189   1.403       .  A
C4188      C4193   1.506       .  S
C4189      C4190   1.403   1_554  A
C4189      H4194   1.084       .  S
C4190      C4191   1.417       .  A
C4191      C4192   1.405       .  A
C4191      C4195   1.508       .  S
C4192      H4196   1.084       .  S
C4193      H4203   1.111       .  S
C4193      H4204   1.111       .  S
C4193      H4205   1.109       .  S
C4195      H4206   1.110       .  S
C4195      H4207   1.110       .  S
C4195      H4208   1.111       .  S
C4209      C4210   1.401       .  A
C4209      C4214   1.404       .  A
C4209      H4219   1.084       .  S
C4210      C4215   1.480       .  S
C4210      C4211   1.411       .  A
C4211      C4212   1.402       .  A
C4211      C4216   1.507       .  S
C4212      C4213   1.404       .  A
C4212      H4217   1.084       .  S
C4213      C4214   1.416       .  A
C4214      C4218   1.507       .  S
C4215      C4220   1.410       .  A
C4215      C4224   1.399       .  A
C4216      H4232   1.110       .  S
C4216      H4233   1.110       .  S
C4216      H4234   1.111       .  S
C4218      H4229   1.111       .  S
C4218      H4230   1.110       .  S
C4218      H4231   1.109       .  S
C4220      C4221   1.404       .  A
C4220      C4225   1.507       .  S
C4221      C4222   1.406       .  A
C4221      H4226   1.084       .  S
C4222      C4223   1.421       .  A
C4223      C4224   1.403       .  A
C4223      C4227   1.510       .  S
C4224      H4228   1.084       .  S
C4225      H4235   1.111       .  S
C4225      H4236   1.110       .  S
C4225      H4237   1.110       .  S
C4227      H4238   1.111       .  S
C4227      H4239   1.111       .  S
C4227      H4240   1.109       .  S
C4241      C4242   1.396       .  A
C4241      C4246   1.401       .  A
C4241      H4251   1.085       .  S
C4242      C4247   1.479       .  S
C4242      C4243   1.409       .  A
C4243      C4244   1.407       .  A
C4243      C4248   1.506       .  S
C4244      C4245   1.409       .  A
C4244      H4249   1.084       .  S
C4245      C4246   1.418       .  A
C4246      C4250   1.502       .  S
C4247      C4252   1.411       .  A
C4247      C4256   1.400       .  A
C4248      H4264   1.110       .  S
C4248      H4265   1.110       .  S
C4248      H4266   1.111       .  S
C4250      H4261   1.111       .  S
C4250      H4262   1.109       .  S
C4250      H4263   1.111       .  S
C4252      C4253   1.404       .  A
C4252      C4257   1.507       .  S
C4253      C4254   1.403       .  A
C4253      H4258   1.084       .  S
C4254      C4255   1.415       .  A
C4255      C4256   1.404       .  A
C4255      C4259   1.508       .  S
C4256      H4260   1.084       .  S
C4257      H4267   1.111       .  S
C4257      H4268   1.110       .  S
C4257      H4269   1.109       .  S
C4259      H4270   1.109       .  S
C4259      H4271   1.110       .  S
C4259      H4272   1.111       .  S
C4273      C4274   1.401   1_654  A
C4273      C4278   1.403       .  A
C4273      H4283   1.084   1_655  S
C4274      C4279   1.475       .  S
C4274      C4275   1.411       .  A
C4275      C4276   1.400   1_455  A
C4275      C4280   1.507       .  S
C4276      C4277   1.401       .  A
C4276      H4281   1.084       .  S
C4277      C4278   1.412   1_556  A
C4278      C4282   1.506       .  S
C4279      C4284   1.408       .  A
C4279      C4288   1.397   1_556  A
C4280      H4296   1.110       .  S
C4280      H4297   1.110       .  S
C4280      H4298   1.111       .  S
C4282      H4293   1.111       .  S
C4282      H4294   1.109       .  S
C4282      H4295   1.111   1_554  S
C4284      C4285   1.403       .  A
C4284      C4289   1.505       .  S
C4285      C4286   1.406       .  A
C4285      H4290   1.084       .  S
C4286      C4287   1.420   1_556  A
C4287      C4288   1.399       .  A
C4287      C4291   1.510       .  S
C4288      H4292   1.085       .  S
C4289      H4299   1.111       .  S
C4289      H4300   1.110       .  S
C4289      H4301   1.110       .  S
C4291      H4302   1.110       .  S
C4291      H4303   1.111       .  S
C4291      H4304   1.111       .  S
C4305      C4306   1.395       .  A
C4305      C4310   1.396       .  A
C4305      H4315   1.085       .  S
C4306      C4311   1.466       .  S
C4306      C4307   1.408       .  A
C4307      C4308   1.402       .  A
C4307      C4312   1.507       .  S
C4308      C4309   1.404       .  A
C4308      H4313   1.084       .  S
C4309      C4310   1.418       .  A
C4310      C4314   1.509       .  S
C4311      C4316   1.407       .  A
C4311      C4320   1.399       .  A
C4312      H4328   1.110       .  S
C4312      H4329   1.110       .  S
C4312      H4330   1.111       .  S
C4314      H4325   1.109       .  S
C4314      H4326   1.111       .  S
C4314      H4327   1.110       .  S
C4316      C4317   1.396       .  A
C4316      C4321   1.507       .  S
C4317      C4318   1.403       .  A
C4317      H4322   1.085       .  S
C4318      C4319   1.417       .  A
C4319      C4320   1.399       .  A
C4319      C4323   1.510       .  S
C4320      H4324   1.084       .  S
C4321      H4331   1.111       .  S
C4321      H4332   1.110       .  S
C4321      H4333   1.110       .  S
C4323      H4334   1.111       .  S
C4323      H4335   1.110       .  S
C4323      H4336   1.109       .  S
C4337      C4338   1.399       .  A
C4337      C4342   1.395       .  A
C4337      H4347   1.085       .  S
C4338      C4343   1.467       .  S
C4338      C4339   1.409       .  A
C4339      C4340   1.401       .  A
C4339      C4344   1.506       .  S
C4340      C4341   1.403       .  A
C4340      H4345   1.085       .  S
C4341      C4342   1.413       .  A
C4342      C4346   1.511       .  S
C4343      C4348   1.407       .  A
C4343      C4352   1.396       .  A
C4344      H4360   1.110       .  S
C4344      H4361   1.109       .  S
C4344      H4362   1.111       .  S
C4346      H4357   1.109       .  S
C4346      H4358   1.111       .  S
C4346      H4359   1.111       .  S
C4348      C4349   1.401       .  A
C4348      C4353   1.507       .  S
C4349      C4350   1.406       .  A
C4349      H4354   1.084       .  S
C4350      C4351   1.419       .  A
C4351      C4352   1.397       .  A
C4351      C4355   1.509       .  S
C4352      H4356   1.085       .  S
C4353      H4363   1.111       .  S
C4353      H4364   1.110       .  S
C4353      H4365   1.109       .  S
C4355      H4366   1.111       .  S
C4355      H4367   1.111       .  S
C4355      H4368   1.109       .  S
C4369      C4370   1.402       .  A
C4369      C4374   1.407       .  A
C4369      H4379   1.084       .  S
C4370      C4375   1.485       .  S
C4370      C4371   1.410   1_556  A
C4371      C4372   1.403       .  A
C4371      C4376   1.506       .  S
C4372      C4373   1.405   1_554  A
C4372      H4377   1.084       .  S
C4373      C4374   1.419       .  A
C4374      C4378   1.507       .  S
C4375      C4380   1.411       .  A
C4375      C4384   1.398   1_556  A
C4376      H4392   1.110       .  S
C4376      H4393   1.110       .  S
C4376      H4394   1.111       .  S
C4378      H4389   1.110       .  S
C4378      H4390   1.111       .  S
C4378      H4391   1.107       .  S
C4380      C4381   1.407       .  A
C4380      C4385   1.506       .  S
C4381      C4382   1.407       .  A
C4381      H4386   1.084       .  S
C4382      C4383   1.421   1_556  A
C4383      C4384   1.404       .  A
C4383      C4387   1.509       .  S
C4384      H4388   1.084       .  S
C4385      H4395   1.111       .  S
C4385      H4396   1.110       .  S
C4385      H4397   1.110       .  S
C4387      H4398   1.111       .  S
C4387      H4399   1.110       .  S
C4387      H4400   1.109       .  S
C4401      C4402   1.401       .  A
C4401      C4406   1.406       .  A
C4401      H4411   1.084       .  S
C4402      C4407   1.480       .  S
C4402      C4403   1.409       .  A
C4403      C4404   1.402       .  A
C4403      C4408   1.506       .  S
C4404      C4405   1.403       .  A
C4404      H4409   1.084       .  S
C4405      C4406   1.419       .  A
C4406      C4410   1.509       .  S
C4407      C4412   1.411       .  A
C4407      C4416   1.399       .  A
C4408      H4424   1.110       .  S
C4408      H4425   1.110       .  S
C4408      H4426   1.110       .  S
C4410      H4421   1.111       .  S
C4410      H4422   1.110       .  S
C4410      H4423   1.110       .  S
C4412      C4413   1.405       .  A
C4412      C4417   1.507       .  S
C4413      C4414   1.405       .  A
C4413      H4418   1.084       .  S
C4414      C4415   1.417       .  A
C4415      C4416   1.404       .  A
C4415      C4419   1.508       .  S
C4416      H4420   1.084       .  S
C4417      H4427   1.111       .  S
C4417      H4428   1.110       .  S
C4417      H4429   1.110       .  S
C4419      H4430   1.108       .  S
C4419      H4431   1.111       .  S
C4419      H4432   1.111       .  S
C4433      C4434   1.402       .  A
C4433      C4438   1.406       .  A
C4433      H4443   1.084       .  S
C4434      C4439   1.481       .  S
C4434      C4435   1.411       .  A
C4435      C4436   1.401       .  A
C4435      C4440   1.508       .  S
C4436      C4437   1.405       .  A
C4436      H4441   1.084       .  S
C4437      C4438   1.414       .  A
C4438      C4442   1.505       .  S
C4439      C4444   1.411       .  A
C4439      C4448   1.400       .  A
C4440      H4456   1.110       .  S
C4440      H4457   1.110       .  S
C4440      H4458   1.111       .  S
C4442      H4453   1.111       .  S
C4442      H4454   1.107       .  S
C4442      H4455   1.111       .  S
C4444      C4445   1.407       .  A
C4444      C4449   1.506       .  S
C4445      C4446   1.406       .  A
C4445      H4450   1.084       .  S
C4446      C4447   1.414       .  A
C4447      C4448   1.401       .  A
C4447      C4451   1.509       .  S
C4448      H4452   1.084       .  S
C4449      H4459   1.111       .  S
C4449      H4460   1.110       .  S
C4449      H4461   1.111       .  S
C4451      H4462   1.109       .  S
C4451      H4463   1.110       .  S
C4451      H4464   1.110       .  S
C4465      C4466   1.401       .  A
C4465      C4470   1.404       .  A
C4465      H4475   1.084       .  S
C4466      C4471   1.471       .  S
C4466      C4467   1.408   1_556  A
C4467      C4468   1.395       .  A
C4467      C4472   1.509       .  S
C4468      C4469   1.404   1_554  A
C4468      H4473   1.083       .  S
C4469      C4470   1.417       .  A
C4470      C4474   1.508       .  S
C4471      C4476   1.410   1_556  A
C4471      C4480   1.398       .  A
C4472      H4488   1.110       .  S
C4472      H4489   1.110       .  S
C4472      H4490   1.111       .  S
C4474      H4485   1.111       .  S
C4474      H4486   1.110       .  S
C4474      H4487   1.107       .  S
C4476      C4477   1.405   1_455  A
C4476      C4481   1.505       .  S
C4477      C4478   1.404   1_554  A
C4477      H4482   1.084       .  S
C4478      C4479   1.412       .  A
C4479      C4480   1.396   1_655  A
C4479      C4483   1.508       .  S
C4480      H4484   1.085       .  S
C4481      H4491   1.111   1_455  S
C4481      H4492   1.110       .  S
C4481      H4493   1.110       .  S
C4483      H4494   1.109       .  S
C4483      H4495   1.111       .  S
C4483      H4496   1.111       .  S
C4497      C4498   1.395       .  A
C4497      C4502   1.400       .  A
C4497      H4507   1.085       .  S
C4498      C4503   1.472       .  S
C4498      C4499   1.406       .  A
C4499      C4500   1.401       .  A
C4499      C4504   1.507       .  S
C4500      C4501   1.410       .  A
C4500      H4505   1.083       .  S
C4501      C4502   1.427       .  A
C4502      C4506   1.510       .  S
C4503      C4508   1.407       .  A
C4503      C4512   1.403       .  A
C4504      H4520   1.110       .  S
C4504      H4521   1.111       .  S
C4504      H4522   1.111       .  S
C4506      H4517   1.111       .  S
C4506      H4518   1.109       .  S
C4506      H4519   1.110       .  S
C4508      C4509   1.396       .  A
C4508      C4513   1.507       .  S
C4509      C4510   1.405       .  A
C4509      H4514   1.085       .  S
C4510      C4511   1.412       .  A
C4511      C4512   1.403       .  A
C4511      C4515   1.506       .  S
C4512      H4516   1.084       .  S
C4513      H4523   1.111       .  S
C4513      H4524   1.110       .  S
C4513      H4525   1.110       .  S
C4515      H4526   1.111       .  S
C4515      H4527   1.110       .  S
C4515      H4528   1.110       .  S
C4529      C4530   1.400       .  A
C4529      C4534   1.399       .  A
C4529      H4539   1.084       .  S
C4530      C4535   1.469       .  S
C4530      C4531   1.410       .  A
C4531      C4532   1.398       .  A
C4531      C4536   1.507       .  S
C4532      C4533   1.402       .  A
C4532      H4537   1.085       .  S
C4533      C4534   1.412       .  A
C4534      C4538   1.507       .  S
C4535      C4540   1.408       .  A
C4535      C4544   1.402       .  A
C4536      H4552   1.110       .  S
C4536      H4553   1.110       .  S
C4536      H4554   1.111       .  S
C4538      H4549   1.111       .  S
C4538      H4550   1.109       .  S
C4538      H4551   1.109       .  S
C4540      C4541   1.400       .  A
C4540      C4545   1.506       .  S
C4541      C4542   1.401       .  A
C4541      H4546   1.084       .  S
C4542      C4543   1.408       .  A
C4543      C4544   1.399       .  A
C4543      C4547   1.506       .  S
C4544      H4548   1.084       .  S
C4545      H4555   1.111       .  S
C4545      H4556   1.110       .  S
C4545      H4557   1.110       .  S
C4547      H4558   1.111       .  S
C4547      H4559   1.110       .  S
C4547      H4560   1.110       .  S
