geometry optimzed in LAMMPS
_audit_creation_date              2020-11-30 
_audit_creation_method            'lammps2cif' 
_symmetry_space_group_name_H-M    'P1' 
_symmetry_Int_Tables_number       1 
_symmetry_cell_setting            triclinic 
loop_ 
_symmetry_equiv_pos_as_xyz 
  x,y,z 
_cell_length_a                    35.95956015 
_cell_length_b                    35.93059874540153 
_cell_length_c                    24.870928016504127 
_cell_angle_alpha                 91.9219346668525 
_cell_angle_beta                  88.15778998255075 
_cell_angle_gamma                 117.80053131788426 
loop_ 
_atom_site_label 
_atom_site_type_symbol 
_atom_site_fract_x 
_atom_site_fract_y 
_atom_site_fract_z 
_atom_site_charge 
O1          O  0.18042458  0.49247193  0.10819254    -0.81100
O2          O  0.32562062  0.48775949  0.97428733    -0.65800
O3          O  0.25180362  0.02415049  0.03907631    -1.12400
C4          C  0.16178995  0.44383695  0.89483964     1.05800
O5          O  0.31573263  0.00472116  0.89298271    -0.79000
O6          O  0.25401001  0.02853102  0.87254161    -0.66600
Ni7        Ni  0.24127955  0.02004519  0.11531203     1.34900
C8          C  0.23444439  0.04583656  0.89746085     0.84500
O9          O  0.33543207  0.04106384  0.05663732    -0.79500
O10         O  0.30084074  0.04799824  0.13015702    -0.89800
C11         C  0.33698321  0.99602944  0.92588738     0.84100
O12         O  0.24146165  0.46770822  0.12808251    -0.68000
O13         O  0.19541850  0.44790961  0.87076024    -0.87300
C14         C  0.26189965  0.45108336  0.10379243     0.84900
C15         C  0.33456446  0.05266591  0.10572290     1.06500
H16         H  0.23388453  0.44316632  0.97073640     0.38300
O17         O  0.24428668  0.47238807  0.96196911    -1.10000
O18         O  0.22008152  0.03660682  0.94524603    -0.66600
Ni19       Ni  0.20616477  0.49025203  0.99208870     1.26300
O20         O  0.27659111  0.46043534  0.05613796    -0.66800
O21         O  0.16091900  0.45595705  0.94370007    -0.79100
C22         C  0.15923028  0.50107533  0.07508967     0.84300
O23         O  0.17043059  0.00885308  0.02652973    -0.66300
Ni24       Ni  0.25490180  0.47650557  0.88570519     1.27400
Ni25       Ni  0.28997516  0.00640736  0.00877829     1.26100
H26         H  0.26222906  0.05339984  0.03043041     0.38900
O27         O  0.18341675  0.20912666  0.89633132    -0.81100
O28         O  0.32752412  0.32830292  0.03400355    -0.65800
O29         O  0.25157674  0.23023243  0.95924890    -1.12400
C30         C  0.16183569  0.22037389  0.11230655     1.05800
O31         O  0.31263450  0.28961825  0.10647339    -0.79000
O32         O  0.24367217  0.21278511  0.12841550    -0.66600
Ni33       Ni  0.24254470  0.22962114  0.88406337     1.34900
C34         C  0.22499370  0.17974241  0.09936865     0.84500
O35         O  0.33485026  0.29123183  0.93948305    -0.79500
O36         O  0.30131882  0.25001877  0.86775475    -0.89800
C37         C  0.33381844  0.32434257  0.08293766     0.84100
O38         O  0.25231553  0.28623053  0.87440049    -0.68000
O39         O  0.19465814  0.24897634  0.13487061    -0.87300
C40         C  0.27118173  0.31931329  0.90337737     0.84900
C41         C  0.33413743  0.27865790  0.89024527     1.06500
H42         H  0.23480621  0.28941001  0.03852378     0.38300
O43         O  0.24443811  0.26876260  0.04344797    -1.10000
O44         O  0.21840110  0.18076475  0.04938961    -0.66600
Ni45       Ni  0.20549681  0.21858766  0.00964791     1.26300
O46         O  0.27756804  0.31827872  0.95342332    -0.66800
O47         O  0.16114118  0.20786074  0.06306170    -0.79100
C48         C  0.16254286  0.17430263  0.91976214     0.84300
O49         O  0.16855256  0.17056737  0.96885755    -0.66300
Ni50       Ni  0.25347589  0.26933711  0.11862579     1.27400
Ni51       Ni  0.29050877  0.28041836  0.99304331     1.26100
H52         H  0.26120215  0.20958492  0.96420808     0.38900
O53         O  0.32475075  0.02012107  0.59186723    -0.81100
O54         O  0.16219093  0.49224160  0.49416235    -0.65800
O55         O  0.25340233  0.47700783  0.53345664    -1.12400
C56         C  0.32575078  0.06819522  0.39280922     1.05800
O57         O  0.17384734  0.48254235  0.40864088    -0.79000
O58         O  0.23913560  0.47008413  0.37341564    -0.66600
Ni59       Ni  0.26638703  0.48363296  0.60873632     1.34900
C60         C  0.26649397  0.46091590  0.39080039     0.84500
O61         O  0.17003880  0.44072529  0.55850182    -0.79500
O62         O  0.20813304  0.44855904  0.63166400    -0.89800
C63         C  0.15162881  0.48778406  0.44616745     0.84100
O64         O  0.25983060  0.03221136  0.62791244    -0.68000
O65         O  0.29058887  0.05387520  0.36891336    -0.87300
C66         C  0.23271651  0.04167686  0.61055728     0.84900
C67         C  0.17304553  0.43476981  0.60769027     1.06500
H68         H  0.24967723  0.05356992  0.47912573     0.38300
O69         O  0.24571069  0.02611435  0.46711637    -1.10000
O70         O  0.28699751  0.47792701  0.43297914    -0.66600
Ni71       Ni  0.29207946  0.01950801  0.48684420     1.26300
O72         O  0.21253476  0.02530608  0.56793231    -0.66800
O73         O  0.32901902  0.06261595  0.44207263    -0.79100
C74         C  0.34672422  0.01403114  0.55484026     0.84300
O75         O  0.33714143  0.01105889  0.50656220    -0.66300
Ni76       Ni  0.23243075  0.01882809  0.39191551     1.27400
Ni77       Ni  0.20716136  0.48378643  0.51382888     1.26100
H78         H  0.24935393  0.44958655  0.52119902     0.38900
O79         O  0.01742096  0.32494892  0.90923572    -0.81100
O80         O  0.48699442  0.16073766  0.00702287    -0.65800
O81         O  0.47423628  0.25381454  0.96859781    -1.12400
C82         C  0.06674097  0.32564324  0.10724576     1.05800
O83         O  0.48132261  0.17337964  0.09342022    -0.79000
O84         O  0.46761624  0.23814489  0.12648314    -0.66600
Ni85       Ni  0.48082427  0.26643091  0.89315492     1.34900
C86         C  0.45976496  0.26676022  0.11047525     0.84500
O87         O  0.43519679  0.17020797  0.94437204    -0.79500
O88         O  0.44559645  0.20815757  0.87047873    -0.89800
C89         C  0.48523047  0.15098578  0.05505391     0.84100
O90         O  0.02937219  0.25959008  0.87503565    -0.68000
O91         O  0.05113805  0.29069794  0.13172133    -0.87300
C92         C  0.03752565  0.23134338  0.89161799     0.84900
C93         C  0.43039317  0.17314084  0.89479203     1.06500
H94         H  0.05025604  0.24771097  0.02106093     0.38300
O95         O  0.02333892  0.24470458  0.03365179    -1.10000
O96         O  0.47775041  0.28822338  0.06929637    -0.66600
Ni97       Ni  0.01801086  0.29193388  0.01415163     1.26300
O98         O  0.01993026  0.21035666  0.93320525    -0.66800
O99         O  0.06260891  0.32841298  0.05747279    -0.79100
C100        C  0.01265752  0.34730343  0.94690773     0.84300
O101        O  0.01058827  0.33779381  0.99508087    -0.66300
Ni102      Ni  0.01682339  0.23224739  0.10910259     1.27400
Ni103      Ni  0.47958844  0.20661387  0.98805301     1.26100
H104        H  0.44726094  0.25080235  0.98125326     0.38900
O105        O  0.49218256  0.18125141  0.39383239    -0.81100
O106        O  0.98907478  0.32761287  0.52698507    -0.65800
O107        O  0.02450295  0.25279704  0.46254517    -1.12400
C108        C  0.44390646  0.16323652  0.60720305     1.05800
O109        O  0.00486606  0.31728210  0.60886704    -0.79000
O110        O  0.02828096  0.25520894  0.62960065    -0.66600
Ni111      Ni  0.02048198  0.24201850  0.38632068     1.34900
C112        C  0.04569111  0.23569186  0.60476563     0.84500
O113        O  0.04160506  0.33642141  0.44387279    -0.79500
O114        O  0.04921037  0.30148161  0.37104082    -0.89800
C115        C  0.99637470  0.33856456  0.57577539     0.84100
O116        O  0.46854623  0.24296110  0.37329329    -0.68000
O117        O  0.44770574  0.19692554  0.63095292    -0.87300
C118        C  0.45150307  0.26288150  0.39795698     0.84900
C119        C  0.05361767  0.33532399  0.39499360     1.06500
H120        H  0.44389948  0.23546368  0.53069376     0.38300
O121        O  0.47306444  0.24584617  0.53968150    -1.10000
O122        O  0.03693314  0.22158421  0.55674224    -0.66600
Ni123      Ni  0.49060595  0.20734198  0.50977648     1.26300
O124        O  0.46081722  0.27753443  0.44567422    -0.66800
O125        O  0.45639224  0.16227038  0.55854043    -0.79100
C126        C  0.50104938  0.16007375  0.42662008     0.84300
O127        O  0.50891868  0.17123399  0.47529027    -0.66300
Ni128      Ni  0.47654328  0.25642052  0.61598848     1.27400
Ni129      Ni  0.00715647  0.29137311  0.49255980     1.26100
H130        H  0.05371887  0.26314946  0.47125487     0.38900
N131        N  0.99930777  0.12093350  0.41008079    -0.03700
C132        C  0.46501414  0.08659292  0.39299673    -0.01100
C133        C  0.47553885  0.05506327  0.37999714    -0.24000
C134        C  0.01830435  0.07227248  0.38596909    -0.24200
C135        C  0.03281380  0.11390738  0.40264292    -0.01200
H136        H  0.45624869  0.02604962  0.35825274     0.12600
H137        H  0.03705673  0.05905616  0.36697374     0.12600
C138        C  0.27808718  0.43187994  0.35989858     0.80000
N139        N  0.30755201  0.42286657  0.38090866    -0.78300
C140        C  0.32517591  0.40309932  0.35037746     0.82500
N141        N  0.31312739  0.39220163  0.29889256    -0.78200
C142        C  0.28504005  0.40203856  0.27628617     0.82600
N143        N  0.26752866  0.42224078  0.30694087    -0.80000
C144        C  0.36570033  0.08726255  0.36277541     0.80000
N145        N  0.36665430  0.08534635  0.30789738    -0.78300
C146        C  0.40169172  0.08808078  0.28165267     0.82500
N147        N  0.43359671  0.08923028  0.31003309    -0.78200
C148        C  0.43224058  0.09011653  0.36416898     0.82600
N149        N  0.39979096  0.09199198  0.39031320    -0.80000
N150        N  0.35900838  0.36427588  0.39087083    -0.03700
C151        C  0.39418025  0.36085397  0.37794903    -0.01100
C152        C  0.42153357  0.39655721  0.35032837    -0.24000
C153        C  0.40110078  0.42049143  0.34389639    -0.24200
C154        C  0.36197903  0.39929975  0.36846795    -0.01200
H155        H  0.44986473  0.40098936  0.32866926     0.12600
H156        H  0.41124765  0.44691155  0.31740649     0.12600
C157        C  0.42282407  0.27387364  0.36857962     0.80000
N158        N  0.41243157  0.30305582  0.39163770    -0.78300
C159        C  0.39267224  0.31986586  0.36271290     0.82500
N160        N  0.38335364  0.30709769  0.31096236    -0.78200
C161        C  0.39783650  0.28240961  0.28531948     0.82600
N162        N  0.41733452  0.26527064  0.31445331    -0.80000
C163        C  0.07123561  0.37429566  0.36245136     0.80000
N164        N  0.07533728  0.37129659  0.30813354    -0.78300
C165        C  0.08569239  0.40530060  0.27699476     0.82500
N166        N  0.09325561  0.44302220  0.30000130    -0.78200
C167        C  0.09022773  0.44697345  0.35387539     0.82600
N168        N  0.07837017  0.41210226  0.38482365    -0.80000
N169        N  0.10671054  0.48819331  0.37955960    -0.03700
C170        C  0.10013278  0.02150344  0.36893861    -0.01100
C171        C  0.08850064  0.03354314  0.41819317    -0.24000
C172        C  0.10072317  0.01624449  0.45823601    -0.24200
C173        C  0.11449595  0.49070784  0.43177903    -0.01200
H174        H  0.08622117  0.06228405  0.42541822     0.12600
H175        H  0.10730596  0.02812059  0.49928199     0.12600
C176        C  0.13723378  0.20586311  0.37524220     0.80000
N177        N  0.13546447  0.20633941  0.32002173    -0.78300
C178        C  0.10079097  0.17700416  0.29353502     0.82500
N179        N  0.06940058  0.14695869  0.32206891    -0.78200
C180        C  0.07052714  0.14595354  0.37605895     0.82600
N181        N  0.10364548  0.17618622  0.40305214    -0.80000
C182        C  0.19657878  0.12495835  0.35453378     0.80000
N183        N  0.16400554  0.09015552  0.37524207    -0.78300
C184        C  0.13589971  0.05878783  0.34299622     0.82500
N185        N  0.14164240  0.06226990  0.28880069    -0.78200
C186        C  0.17427047  0.09726859  0.26695786     0.82600
N187        N  0.20149975  0.12844569  0.29998790    -0.80000
C188        C  0.27350615  0.42296976  0.13348158     0.80000
N189        N  0.30309824  0.41313327  0.11065469    -0.78300
C190        C  0.32018874  0.39372124  0.13969295     0.82500
N191        N  0.30743839  0.38428445  0.19136546    -0.78200
C192        C  0.28226066  0.39821213  0.21681151     0.82600
N193        N  0.26482777  0.41739287  0.18756906    -0.80000
C194        C  0.37365294  0.07017017  0.13792736     0.80000
N195        N  0.37098455  0.07542567  0.19201882    -0.78300
C196        C  0.40503946  0.08620985  0.22313330     0.82500
N197        N  0.44257840  0.09312816  0.20027463    -0.78200
C198        C  0.44626769  0.08898154  0.14652789     0.82600
N199        N  0.41119860  0.07645907  0.11566567    -0.80000
N200        N  0.36420045  0.35978227  0.11184459    -0.03700
C201        C  0.36101317  0.39515122  0.12434116    -0.01100
C202        C  0.39683702  0.42269359  0.15169483    -0.24000
C203        C  0.42063975  0.40217640  0.15844960    -0.24200
C204        C  0.39923885  0.36286634  0.13424741    -0.01200
H205        H  0.40144882  0.45126155  0.17300846     0.12600
H206        H  0.44717094  0.41247656  0.18481601     0.12600
C207        C  0.43122508  0.27860238  0.14191705     0.80000
N208        N  0.42186201  0.26799713  0.19488614    -0.78300
C209        C  0.40203701  0.28572098  0.22591432     0.82500
N210        N  0.39251785  0.31417416  0.20374090    -0.78200
C211        C  0.40313576  0.32616735  0.15225350     0.82600
N212        N  0.42235570  0.30825492  0.12130246    -0.80000
C213        C  0.08519269  0.36570823  0.13708867     0.80000
N214        N  0.08368302  0.36675427  0.19194579    -0.78300
C215        C  0.08645182  0.40175117  0.21837886     0.82500
N216        N  0.08734253  0.43364489  0.19017196    -0.78200
C217        C  0.08787843  0.43222712  0.13598860     0.82600
N218        N  0.08944049  0.39963782  0.10960548    -0.80000
N219        N  0.12027063  0.99977529  0.09130381    -0.03700
C220        C  0.08539594  0.46564910  0.10736966    -0.01100
C221        C  0.05426595  0.47684405  0.11980208    -0.24000
C222        C  0.07219552  0.01975972  0.11428990    -0.24200
C223        C  0.11381124  0.03364735  0.09838094    -0.01200
H224        H  0.02489401  0.45778291  0.14083051     0.12600
H225        H  0.05928810  0.03892270  0.13289217     0.12600
C226        C  0.12401638  0.19765374  0.14698333     0.80000
N227        N  0.08956190  0.16486296  0.12573665    -0.78300
C228        C  0.05828922  0.13619865  0.15744513     0.82500
N229        N  0.06170983  0.14142543  0.21179370    -0.78200
C230        C  0.09643483  0.17425121  0.23416039     0.82600
N231        N  0.12732277  0.20214999  0.20155793    -0.80000
C232        C  0.20505862  0.13838198  0.12622253     0.80000
N233        N  0.20582282  0.13657986  0.18137896    -0.78300
C234        C  0.17725908  0.10147015  0.20764635     0.82500
N235        N  0.14772740  0.06960445  0.17896991    -0.78200
C236        C  0.14607021  0.07110754  0.12512990     0.82600
N237        N  0.17548524  0.10474106  0.09830487    -0.80000
N238        N  0.48740953  0.10619740  0.12062748    -0.03700
C239        C  0.02127957  0.10036088  0.13068135    -0.01100
C240        C  0.03354414  0.08967189  0.08091070    -0.24000
C241        C  0.01552751  0.10163815  0.04142953    -0.24200
C242        C  0.48943037  0.11432132  0.06855340    -0.01200
H243        H  0.06252149  0.08797682  0.07322565     0.12600
H244        H  0.02708284  0.10870540  0.00035406     0.12600
O245        O  0.20780414  0.18453781  0.60545096    -0.81100
O246        O  0.32786914  0.32783990  0.46894963    -0.65800
O247        O  0.22928080  0.25282853  0.54314396    -1.12400
C248        C  0.21885469  0.16270429  0.38966269     1.05800
O249        O  0.28874102  0.31330608  0.39683988    -0.79000
O250        O  0.21175881  0.24440444  0.37344213    -0.66600
Ni251      Ni  0.22831973  0.24362948  0.61824708     1.34900
C252        C  0.17863934  0.22620491  0.40239574     0.84500
O253        O  0.29100627  0.33569263  0.56381133    -0.79500
O254        O  0.24871301  0.30240550  0.63476196    -0.89800
C255        C  0.32370640  0.33413296  0.42004647     0.84100
O256        O  0.28480232  0.25330814  0.62880231    -0.68000
O257        O  0.24796924  0.19540619  0.36764538    -0.87300
C258        C  0.31793939  0.27150366  0.59988637     0.84900
C259        C  0.27780784  0.33511334  0.61275179     1.06500
H260        H  0.28767907  0.23489230  0.46416595     0.38300
O261        O  0.26743757  0.24502463  0.45916101    -1.10000
O262        O  0.17968380  0.22036837  0.45263305    -0.66600
Ni263      Ni  0.21693212  0.20658540  0.49248759     1.26300
O264        O  0.31698618  0.27744163  0.54966553    -0.66800
O265        O  0.20569556  0.16212225  0.43860766    -0.79100
C266        C  0.17282380  0.16380743  0.58225570     0.84300
O267        O  0.16876847  0.17005031  0.53330955    -0.66300
Ni268      Ni  0.26829643  0.25419714  0.38406874     1.27400
Ni269      Ni  0.27977409  0.29126307  0.50983795     1.26100
H270        H  0.20905625  0.26297394  0.53809663     0.38900
C271        C  0.29995718  0.37293888  0.64781319     0.80000
N272        N  0.29528057  0.36958565  0.70240671    -0.78300
C273        C  0.32245439  0.40102727  0.73522008     0.82500
N274        N  0.35472791  0.43616073  0.71308672    -0.78200
C275        C  0.36019233  0.43950819  0.65883723     0.82600
N276        N  0.33219075  0.40785594  0.62685876    -0.80000
C277        C  0.35927185  0.29174895  0.62709000     0.80000
N278        N  0.36094910  0.29135201  0.68231778    -0.78300
C279        C  0.39574826  0.32046816  0.70876560     0.81900
N280        N  0.42735348  0.35026829  0.68020116    -0.78200
C281        C  0.42614047  0.35138244  0.62625095     0.82600
N282        N  0.39290580  0.32133607  0.59927736    -0.80000
N283        N  0.38948911  0.01027150  0.62239861    -0.03700
C284        C  0.39579056  0.47670536  0.63252398    -0.01100
C285        C  0.40710187  0.46464645  0.58304780    -0.24000
C286        C  0.39526795  0.48248807  0.54326340    -0.24200
C287        C  0.38215216  0.00838104  0.57006364    -0.01200
H288        H  0.40924010  0.43585332  0.57554522     0.12600
H289        H  0.38895819  0.47122160  0.50195437     0.12600
C290        C  0.42631479  0.12429147  0.63973823     0.80000
N291        N  0.42135099  0.12717215  0.69390518    -0.78300
C292        C  0.41015295  0.09300913  0.72502426     0.82500
N293        N  0.40264390  0.05525970  0.70209941    -0.78200
C294        C  0.40667273  0.05146141  0.64835507     0.82600
N295        N  0.41951356  0.08654686  0.61752037    -0.80000
C296        C  0.07421245  0.22451024  0.63410167     0.80000
N297        N  0.07973094  0.23294546  0.68823869    -0.78300
C298        C  0.09935527  0.21579361  0.71710021     0.82500
N299        N  0.11382756  0.19120546  0.69122070    -0.78200
C300        C  0.10424579  0.17843689  0.63953011     0.82600
N301        N  0.08448629  0.19533083  0.61083183    -0.80000
N302        N  0.13742567  0.13378918  0.61147326    -0.03700
C303        C  0.10232529  0.13733231  0.62432417    -0.01100
C304        C  0.07516980  0.10204032  0.65285088    -0.24000
C305        C  0.09587005  0.07854642  0.66047139    -0.24200
C306        C  0.13480368  0.09949833  0.63544612    -0.01200
H307        H  0.04697269  0.09792014  0.67459612     0.12600
H308        H  0.08603795  0.05271572  0.68788000     0.12600
C309        C  0.22076710  0.07000881  0.64225345     0.80000
N310        N  0.19063068  0.07826110  0.62196777    -0.78300
C311        C  0.17184404  0.09629264  0.65345111     0.82500
N312        N  0.18381501  0.10687628  0.70500566    -0.78200
C313        C  0.21291805  0.09810221  0.72678004     0.82600
N314        N  0.23124739  0.07910501  0.69531375    -0.80000
C315        C  0.13284391  0.41551287  0.63732786     0.80000
N316        N  0.09890992  0.41121935  0.60980434    -0.78300
C317        C  0.06519788  0.41010945  0.63627183     0.82500
N318        N  0.06297904  0.40852683  0.69033652    -0.78200
C319        C  0.09523115  0.41024568  0.71854408     0.82600
N320        N  0.13115048  0.41535717  0.69222603    -0.80000
N321        N  0.49745771  0.37743345  0.59222811    -0.03700
C322        C  0.46355229  0.38376328  0.59963805    -0.01100
C323        C  0.47739790  0.42542628  0.61564395    -0.24000
C324        C  0.02033396  0.44353568  0.62079661    -0.24200
C325        C  0.03159503  0.41247429  0.60799953    -0.01200
H326        H  0.45826436  0.43830444  0.63439559     0.12600
H327        H  0.03944941  0.47299529  0.64176788     0.12600
N328        N  0.00916789  0.39084472  0.88026659    -0.03700
C329        C  0.47564430  0.39741052  0.87081964    -0.01100
C330        C  0.46407186  0.40868700  0.92066721    -0.24000
C331        C  0.48207271  0.39655001  0.95994040    -0.24200
C332        C  0.00756303  0.38325525  0.93250724    -0.01200
H333        H  0.43550296  0.41111494  0.92866350     0.12600
H334        H  0.47108710  0.39011631  0.00130493     0.12600
C335        C  0.22363039  0.07489988  0.86856884     0.80000
N336        N  0.19437157  0.08506138  0.89176653    -0.78300
C337        C  0.17818594  0.10574200  0.86352650     0.82500
N338        N  0.19166538  0.11622349  0.81226335    -0.78200
C339        C  0.21622171  0.10178280  0.78619703     0.82600
N340        N  0.23276355  0.08137807  0.81470205    -0.80000
C341        C  0.12280545  0.42648128  0.86248322     0.80000
N342        N  0.08533520  0.42030558  0.88475700    -0.78300
C343        C  0.05022805  0.40781402  0.85403341     0.82500
N344        N  0.05385163  0.40369416  0.80020404    -0.78200
C345        C  0.09148681  0.41090382  0.77720293     0.82600
N346        N  0.12551803  0.42151554  0.80833289    -0.80000
C347        C  0.29170422  0.36063103  0.87631838     0.80000
N348        N  0.29080809  0.36228075  0.82116313    -0.78300
C349        C  0.32012892  0.39675765  0.79453628     0.82500
N350        N  0.35063765  0.42802456  0.82283765    -0.78200
C351        C  0.35218744  0.42689075  0.87675016     0.82600
N352        N  0.32186838  0.39405856  0.90392927    -0.80000
C353        C  0.37194554  0.30119097  0.85546620     0.80000
N354        N  0.40651676  0.33398416  0.87647740    -0.78300
C355        C  0.43812358  0.36198200  0.84451322     0.82500
N356        N  0.43486630  0.35614895  0.79025729    -0.78200
C357        C  0.39993213  0.32349614  0.76812505     0.82600
N358        N  0.36872390  0.29619771  0.80090863    -0.80000
N359        N  0.37633317  0.49822255  0.90986256    -0.03700
C360        C  0.41081264  0.03289125  0.89426953    -0.01100
C361        C  0.44267962  0.02269773  0.88213111    -0.24000
C362        C  0.42568503  0.47983539  0.88767641    -0.24200
C363        C  0.38384682  0.46496845  0.90320766    -0.01200
H364        H  0.47205503  0.04238116  0.86149629     0.12600
H365        H  0.43948018  0.46126046  0.86966186     0.12600
C366        C  0.41137408  0.13302982  0.86496189     0.80000
N367        N  0.40705606  0.09905212  0.89240347    -0.78300
C368        C  0.40757609  0.06600884  0.86592027     0.82500
N369        N  0.40730977  0.06430106  0.81179135    -0.78200
C370        C  0.40871623  0.09642848  0.78362169     0.82600
N371        N  0.41236860  0.13179279  0.81006701    -0.80000
C372        C  0.06594495  0.21932291  0.86034661     0.80000
N373        N  0.07441900  0.18936178  0.88084113    -0.78300
C374        C  0.09327659  0.17116743  0.84971699     0.82500
N375        N  0.10410197  0.18331635  0.79832515    -0.78200
C376        C  0.09506777  0.21218180  0.77639312     0.82600
N377        N  0.07553122  0.23011515  0.80750717    -0.80000
N378        N  0.13286394  0.13855729  0.89060458    -0.03700
C379        C  0.13692047  0.10363753  0.87813112    -0.01100
C380        C  0.10151456  0.07570002  0.85035719    -0.24000
C381        C  0.07706792  0.09551047  0.84341183    -0.24200
C382        C  0.09767275  0.13480095  0.86790268    -0.01200
H383        H  0.09759960  0.04739226  0.82896058     0.12600
H384        H  0.05067903  0.08484024  0.81673148     0.12600
O385        O  0.18041527  0.99247337  0.10820832    -0.81100
O386        O  0.32561880  0.98776476  0.97430059    -0.65800
O387        O  0.25180916  0.52415226  0.03905534    -1.12400
C388        C  0.16178337  0.94383852  0.89485643     1.05800
O389        O  0.31574102  0.50472454  0.89297126    -0.79000
O390        O  0.25402186  0.52854020  0.87253093    -0.66600
Ni391      Ni  0.24128848  0.52005580  0.11529202     1.34900
C392        C  0.23444813  0.54583870  0.89744699     0.84500
O393        O  0.33543591  0.54105974  0.05662323    -0.79500
O394        O  0.30084943  0.54801958  0.13013232    -0.89800
C395        C  0.33698778  0.49602699  0.92587556     0.84100
O396        O  0.24144038  0.96768943  0.12808655    -0.68000
O397        O  0.19540974  0.94790094  0.87078175    -0.87300
C398        C  0.26188952  0.95107427  0.10380177     0.84900
C399        C  0.33457043  0.55267432  0.10570342     1.06500
H400        H  0.23387714  0.94316546  0.97075932     0.38300
O401        O  0.24428050  0.97238728  0.96198829    -1.10000
O402        O  0.22007643  0.53660034  0.94522714    -0.66600
Ni403      Ni  0.20616051  0.99025554  0.99210572     1.26300
O404        O  0.27659374  0.96043804  0.05615451    -0.66800
O405        O  0.16091420  0.95596640  0.94371346    -0.79100
C406        C  0.15922480  0.00108064  0.07510330     0.84300
O407        O  0.17043174  0.50884469  0.02651442    -0.66300
Ni408      Ni  0.25489306  0.97649919  0.88572313     1.27400
Ni409      Ni  0.28997949  0.50640608  0.00876168     1.26100
H410        H  0.26223417  0.55340027  0.03040376     0.38900
O411        O  0.18341953  0.70913020  0.89632942    -0.81100
O412        O  0.32752196  0.82830200  0.03400841    -0.65800
O413        O  0.25157785  0.73023347  0.95924888    -1.12400
C414        C  0.16183363  0.72037018  0.11230458     1.05800
O415        O  0.31263147  0.78961327  0.10647469    -0.79000
O416        O  0.24366730  0.71278008  0.12841671    -0.66600
Ni417      Ni  0.24254731  0.72962380  0.88406347     1.34900
C418        C  0.22499214  0.67973776  0.09936818     0.84500
O419        O  0.33485078  0.79123548  0.93948617    -0.79500
O420        O  0.30132157  0.75002126  0.86775767    -0.89800
C421        C  0.33381533  0.82433909  0.08294197     0.84100
O422        O  0.25231791  0.78623287  0.87440164    -0.68000
O423        O  0.19465514  0.74897329  0.13486964    -0.87300
C424        C  0.27118081  0.81931527  0.90337979     0.84900
C425        C  0.33413888  0.77866210  0.89024837     1.06500
H426        H  0.23480402  0.78940677  0.03852583     0.38300
O427        O  0.24443652  0.76876019  0.04344930    -1.10000
O428        O  0.21840084  0.68076124  0.04938851    -0.66600
Ni429      Ni  0.20549690  0.71858581  0.00964712     1.26300
O430        O  0.27756765  0.81828045  0.95342581    -0.66800
O431        O  0.16114046  0.70785685  0.06306002    -0.79100
C432        C  0.16254499  0.67430524  0.91975778     0.84300
O433        O  0.16855384  0.67056743  0.96885280    -0.66300
Ni434      Ni  0.25347295  0.76933295  0.11862695     1.27400
Ni435      Ni  0.29050826  0.78041902  0.99304532     1.26100
H436        H  0.26120385  0.70958694  0.96420738     0.38900
O437        O  0.32474918  0.52012389  0.59185921    -0.81100
O438        O  0.16219079  0.99223933  0.49417461    -0.65800
O439        O  0.25340281  0.97700498  0.53346595    -1.12400
C440        C  0.32574681  0.56819426  0.39279304     1.05800
O441        O  0.17385120  0.98254956  0.40865136    -0.79000
O442        O  0.23913629  0.97009042  0.37342268    -0.66600
Ni443      Ni  0.26638846  0.98363063  0.60874532     1.34900
C444        C  0.26649159  0.96091808  0.39080769     0.84500
O445        O  0.17003977  0.94071965  0.55851041    -0.79500
O446        O  0.20813444  0.94855734  0.63167373    -0.89800
C447        C  0.15163152  0.98778810  0.44617882     0.84100
O448        O  0.25982861  0.53221332  0.62790234    -0.68000
O449        O  0.29058415  0.55387000  0.36889796    -0.87300
C450        C  0.23271757  0.54168192  0.61054424     0.84900
C451        C  0.17304669  0.93476634  0.60769991     1.06500
H452        H  0.24967605  0.55357030  0.47910807     0.38300
O453        O  0.24570950  0.52611369  0.46710212    -1.10000
O454        O  0.28699526  0.97792684  0.43298723    -0.66600
Ni455      Ni  0.29207905  0.51950959  0.48683255     1.26300
O456        O  0.21253687  0.52531251  0.56791800    -0.66800
O457        O  0.32901716  0.56261529  0.44205640    -0.79100
C458        C  0.34672326  0.51403408  0.55483302     0.84300
O459        O  0.33714201  0.51106305  0.50655436    -0.66300
Ni460      Ni  0.23242697  0.51882123  0.39190223     1.27400
Ni461      Ni  0.20716168  0.98378358  0.51383952     1.26100
H462        H  0.24935475  0.94958292  0.52120716     0.38900
O463        O  0.01741538  0.82495135  0.90923215    -0.81100
O464        O  0.48699860  0.66074297  0.00701911    -0.65800
O465        O  0.47423518  0.75381547  0.96859366    -1.12400
C466        C  0.06673412  0.82564732  0.10724859     1.05800
O467        O  0.48132492  0.67338243  0.09341676    -0.79000
O468        O  0.46761607  0.73814580  0.12648596    -0.66600
Ni469      Ni  0.48082505  0.76643186  0.89315045     1.34900
C470        C  0.45976028  0.76675752  0.11047544     0.84500
O471        O  0.43519966  0.67021006  0.94436891    -0.79500
O472        O  0.44560330  0.70815760  0.87047297    -0.89800
C473        C  0.48523476  0.65099037  0.05504952     0.84100
O474        O  0.02937839  0.75959801  0.87503674    -0.68000
O475        O  0.05113654  0.79070150  0.13172239    -0.87300
C476        C  0.03753112  0.73135067  0.89161860     0.84900
C477        C  0.43039910  0.67314156  0.89478781     1.06500
H478        H  0.05025744  0.74771793  0.02105950     0.38300
O479        O  0.02333939  0.74470924  0.03365051    -1.10000
O480        O  0.47774202  0.78821869  0.06929366    -0.66600
Ni481      Ni  0.01800688  0.79193588  0.01415061     1.26300
O482        O  0.01993362  0.71036227  0.93320381    -0.66800
O483        O  0.06260092  0.82841736  0.05747589    -0.79100
C484        C  0.01264978  0.84730339  0.94690585     0.84300
O485        O  0.01057996  0.83779256  0.99507871    -0.66300
Ni486      Ni  0.01682464  0.73225093  0.10910143     1.27400
Ni487      Ni  0.47958994  0.70661713  0.98805022     1.26100
H488        H  0.44725875  0.75080120  0.98124677     0.38900
O489        O  0.49218010  0.68125860  0.39383582    -0.81100
O490        O  0.98907089  0.82761469  0.52698659    -0.65800
O491        O  0.02450440  0.75280305  0.46254736    -1.12400
C492        C  0.44391000  0.66323970  0.60720464     1.05800
O493        O  0.00486821  0.81728525  0.60886580    -0.79000
O494        O  0.02828738  0.75521593  0.62959968    -0.66600
Ni495      Ni  0.02048522  0.74202531  0.38632329     1.34900
C496        C  0.04569562  0.73569655  0.60476589     0.84500
O497        O  0.04160140  0.83642546  0.44387305    -0.79500
O498        O  0.04921875  0.80148850  0.37104562    -0.89800
C499        C  0.99637319  0.83856649  0.57577658     0.84100
O500        O  0.46855230  0.74297310  0.37329023    -0.68000
O501        O  0.44771135  0.69692912  0.63095601    -0.87300
C502        C  0.45150362  0.76288711  0.39795670     0.84900
C503        C  0.05362117  0.83532969  0.39499701     1.06500
H504        H  0.44390005  0.73546550  0.53069829     0.38300
O505        O  0.47306572  0.74584942  0.53968418    -1.10000
O506        O  0.03693647  0.72158789  0.55674309    -0.66600
Ni507      Ni  0.49060882  0.70734678  0.50977808     1.26300
O508        O  0.46081299  0.77753450  0.44567702    -0.66800
O509        O  0.45639549  0.66227411  0.55854157    -0.79100
C510        C  0.50105006  0.66008056  0.42661898     0.84300
O511        O  0.50892273  0.67124026  0.47528893    -0.66300
Ni512      Ni  0.47654723  0.75642436  0.61599041     1.27400
Ni513      Ni  0.00715482  0.79137684  0.49256094     1.26100
H514        H  0.05371991  0.76315693  0.47125764     0.38900
N515        N  0.99930383  0.62093861  0.41007644    -0.03700
C516        C  0.46500801  0.58660236  0.39298896    -0.01100
C517        C  0.47552604  0.55506776  0.37999217    -0.24000
C518        C  0.01829034  0.57226972  0.38596750    -0.24200
C519        C  0.03280588  0.61390567  0.40264069    -0.01200
H520        H  0.45623311  0.52605537  0.35824701     0.12600
H521        H  0.03703925  0.55904836  0.36697488     0.12600
C522        C  0.27808107  0.93187935  0.35990643     0.80000
N523        N  0.30754496  0.92286504  0.38091686    -0.78300
C524        C  0.32516907  0.90309827  0.35038572     0.82500
N525        N  0.31311971  0.89219916  0.29890151    -0.78200
C526        C  0.28503100  0.90203414  0.27629549     0.82600
N527        N  0.26752119  0.92223856  0.30694917    -0.80000
C528        C  0.36569589  0.58726843  0.36275840     0.80000
N529        N  0.36665019  0.58534815  0.30788026    -0.78300
C530        C  0.40169009  0.58808637  0.28163783     0.82500
N531        N  0.43359653  0.58924194  0.31002113    -0.78200
C532        C  0.43224021  0.59013305  0.36415701     0.82600
N533        N  0.39978906  0.59200744  0.39029789    -0.80000
N534        N  0.35900508  0.86427645  0.39087107    -0.03700
C535        C  0.39417733  0.86085709  0.37794323    -0.01100
C536        C  0.42152822  0.89656189  0.35032333    -0.24000
C537        C  0.40109436  0.92049622  0.34390082    -0.24200
C538        C  0.36197371  0.89930162  0.36847458    -0.01200
H539        H  0.44985850  0.90099612  0.32866016     0.12600
H540        H  0.41123874  0.94691779  0.31741384     0.12600
C541        C  0.42282317  0.77387761  0.36857934     0.80000
N542        N  0.41243260  0.80306196  0.39163466    -0.78300
C543        C  0.39267184  0.81986992  0.36270882     0.82500
N544        N  0.38334967  0.80709755  0.31096031    -0.78200
C545        C  0.39783042  0.78240694  0.28531941     0.82600
N546        N  0.41732960  0.76526977  0.31445430    -0.80000
C547        C  0.07124182  0.87430203  0.36245656     0.80000
N548        N  0.07534270  0.87130350  0.30813871    -0.78300
C549        C  0.08569802  0.90530796  0.27700100     0.82500
N550        N  0.09326230  0.94302969  0.30000869    -0.78200
C551        C  0.09023591  0.94698043  0.35388314     0.82600
N552        N  0.07837817  0.91210871  0.38483025    -0.80000
N553        N  0.10671655  0.98819962  0.37956928    -0.03700
C554        C  0.10011935  0.52149326  0.36893314    -0.01100
C555        C  0.08848457  0.53352789  0.41818934    -0.24000
C556        C  0.10071365  0.51623265  0.45822928    -0.24200
C557        C  0.11450000  0.99071401  0.43178942    -0.01200
H558        H  0.08619895  0.56226528  0.42541715     0.12600
H559        H  0.10729543  0.52810735  0.49927591     0.12600
C560        C  0.13722793  0.70585866  0.37524022     0.80000
N561        N  0.13546132  0.70633100  0.32001883    -0.78300
C562        C  0.10079064  0.67699165  0.29353096     0.82500
N563        N  0.06940055  0.64694601  0.32206509    -0.78200
C564        C  0.07052254  0.64594716  0.37605656     0.82600
N565        N  0.10363766  0.67618429  0.40305005    -0.80000
C566        C  0.19656231  0.62495151  0.35453510     0.80000
N567        N  0.16398770  0.59014867  0.37524128    -0.78300
C568        C  0.13588287  0.55878183  0.34299321     0.82500
N569        N  0.14162734  0.56226517  0.28879782    -0.78200
C570        C  0.17425612  0.59726434  0.26695700     0.82600
N571        N  0.20148469  0.62844020  0.29998926    -0.80000
C572        C  0.27349435  0.92295923  0.13349050     0.80000
N573        N  0.30308698  0.91312286  0.11066505    -0.78300
C574        C  0.32017627  0.89370992  0.13970384     0.82500
N575        N  0.30742434  0.88427254  0.19137587    -0.78200
C576        C  0.28224808  0.89820251  0.21682134     0.82600
N577        N  0.26481542  0.91738275  0.18757776    -0.80000
C578        C  0.37365740  0.57017670  0.13790979     0.80000
N579        N  0.37098672  0.57543140  0.19200108    -0.78300
C580        C  0.40503942  0.58621238  0.22311846     0.82500
N581        N  0.44257852  0.59312816  0.20026264    -0.78200
C582        C  0.44626999  0.58898181  0.14651616     0.82600
N583        N  0.41120281  0.57646226  0.11565116    -0.80000
N584        N  0.36419471  0.85977816  0.11185222    -0.03700
C585        C  0.36100296  0.89514374  0.12435517    -0.01100
C586        C  0.39682545  0.92268681  0.15171042    -0.24000
C587        C  0.42063309  0.90217376  0.15845734    -0.24200
C588        C  0.39923568  0.86286495  0.13425038    -0.01200
H589        H  0.40143394  0.95125195  0.17302880     0.12600
H590        H  0.44716467  0.91247448  0.18482322     0.12600
C591        C  0.43121973  0.77859889  0.14191734     0.80000
N592        N  0.42185496  0.76799222  0.19488599    -0.78300
C593        C  0.40203055  0.78571681  0.22591423     0.82500
N594        N  0.39251387  0.81417176  0.20374149    -0.78200
C595        C  0.40313413  0.82616679  0.15225546     0.82600
N596        N  0.42235275  0.80825344  0.12130379    -0.80000
C597        C  0.08518236  0.86571216  0.13709278     0.80000
N598        N  0.08367846  0.86675904  0.19195018    -0.78300
C599        C  0.08645400  0.90175813  0.21838511     0.82500
N600        N  0.08734585  0.93365325  0.19018057    -0.78200
C601        C  0.08787272  0.93223327  0.13599750     0.82600
N602        N  0.08942653  0.89964106  0.10961128    -0.80000
N603        N  0.12027702  0.49976926  0.09129483    -0.03700
C604        C  0.08538987  0.96565641  0.10738271    -0.01100
C605        C  0.05426192  0.97685297  0.11982144    -0.24000
C606        C  0.07219883  0.51975103  0.11427202    -0.24200
C607        C  0.11381618  0.53364044  0.09837006    -0.01200
H608        H  0.02489189  0.95779319  0.14085460     0.12600
H609        H  0.05928850  0.53891276  0.13287035     0.12600
C610        C  0.12401417  0.69764861  0.14697997     0.80000
N611        N  0.08956103  0.66485766  0.12573141    -0.78300
C612        C  0.05829021  0.63618952  0.15743800     0.82500
N613        N  0.06171165  0.64141194  0.21178714    -0.78200
C614        C  0.09643500  0.67423877  0.23415575     0.82600
N615        N  0.12732039  0.70214214  0.20155471    -0.80000
C616        C  0.20505941  0.63837635  0.12622149     0.80000
N617        N  0.20581700  0.63657475  0.18137896    -0.78300
C618        C  0.17724953  0.60146580  0.20764467     0.82500
N619        N  0.14772073  0.56959991  0.17896487    -0.78200
C620        C  0.14607231  0.57110079  0.12512306     0.82600
N621        N  0.17549162  0.60473345  0.09830063    -0.80000
N622        N  0.48741297  0.60619801  0.12061894    -0.03700
C623        C  0.02127958  0.60035551  0.13067102    -0.01100
C624        C  0.03354409  0.58966905  0.08089849    -0.24000
C625        C  0.01553191  0.60164259  0.04141959    -0.24200
C626        C  0.48943644  0.61432659  0.06854622    -0.01200
H627        H  0.06251968  0.58797064  0.07321283     0.12600
H628        H  0.02708852  0.60871241  0.00034491     0.12600
O629        O  0.20779788  0.68453393  0.60545595    -0.81100
O630        O  0.32786448  0.82783581  0.46894652    -0.65800
O631        O  0.22927697  0.75282528  0.54314582    -1.12400
C632        C  0.21884152  0.66269611  0.38966609     1.05800
O633        O  0.28873952  0.81329997  0.39683286    -0.79000
O634        O  0.21175312  0.74440044  0.37344427    -0.66600
Ni635      Ni  0.22831821  0.74362730  0.61824910     1.34900
C636        C  0.17863288  0.72620045  0.40239667     0.84500
O637        O  0.29100397  0.83569097  0.56380957    -0.79500
O638        O  0.24871415  0.80240407  0.63476279    -0.89800
C639        C  0.32370332  0.83412871  0.42004273     0.84100
O640        O  0.28480153  0.75330482  0.62880091    -0.68000
O641        O  0.24795798  0.69539676  0.36764916    -0.87300
C642        C  0.31793888  0.77150420  0.59988582     0.84900
C643        C  0.27780778  0.83511204  0.61275128     1.06500
H644        H  0.28767207  0.73488630  0.46416790     0.38300
O645        O  0.26743109  0.74501909  0.45916208    -1.10000
O646        O  0.17967627  0.72036315  0.45263435    -0.66600
Ni647      Ni  0.21692495  0.70658058  0.49249030     1.26300
O648        O  0.31698478  0.77744115  0.54966469    -0.66800
O649        O  0.20568425  0.66211505  0.43861178    -0.79100
C650        C  0.17281728  0.66380369  0.58226033     0.84300
O651        O  0.16876176  0.67004732  0.53331457    -0.66300
Ni652      Ni  0.26828975  0.75418900  0.38406901     1.27400
Ni653      Ni  0.27977001  0.79125957  0.50983727     1.26100
H654        H  0.20905308  0.76297056  0.53809978     0.38900
C655        C  0.29995804  0.87293779  0.64781314     0.80000
N656        N  0.29528043  0.86958450  0.70240680    -0.78300
C657        C  0.32245406  0.90102577  0.73522101     0.82500
N658        N  0.35472823  0.93615888  0.71308843    -0.78200
C659        C  0.36019408  0.93950647  0.65883927     0.82600
N660        N  0.33219263  0.90785477  0.62685960    -0.80000
C661        C  0.35927173  0.79175400  0.62709102     0.80000
N662        N  0.36094812  0.79135862  0.68231927    -0.78300
C663        C  0.39574608  0.82047667  0.70876774     0.81900
N664        N  0.42735142  0.85027650  0.68020324    -0.78200
C665        C  0.42614039  0.85138889  0.62625259     0.82600
N666        N  0.39290619  0.82134136  0.59927852    -0.80000
N667        N  0.38948606  0.51027235  0.62239299    -0.03700
C668        C  0.39579336  0.97670418  0.63252838    -0.01100
C669        C  0.40710531  0.96464613  0.58305215    -0.24000
C670        C  0.39527076  0.98248759  0.54326831    -0.24200
C671        C  0.38215004  0.50838235  0.57005787    -0.01200
H672        H  0.40924408  0.93585329  0.57554918     0.12600
H673        H  0.38896084  0.97122124  0.50195924     0.12600
C674        C  0.42631448  0.62429291  0.63973758     0.80000
N675        N  0.42134553  0.62717114  0.69390393    -0.78300
C676        C  0.41014075  0.59300566  0.72502080     0.82500
N677        N  0.40263223  0.55525701  0.70209462    -0.78200
C678        C  0.40666710  0.55146126  0.64835123     0.82600
N679        N  0.41951222  0.58654828  0.61751822    -0.80000
C680        C  0.07421536  0.72451298  0.63410286     0.80000
N681        N  0.07973650  0.73295129  0.68823912    -0.78300
C682        C  0.09935943  0.71579844  0.71710162     0.82500
N683        N  0.11382895  0.69120752  0.69122356    -0.78200
C684        C  0.10424285  0.67843488  0.63953525     0.82600
N685        N  0.08448417  0.69532911  0.61083588    -0.80000
N686        N  0.13741884  0.63378408  0.61147665    -0.03700
C687        C  0.10232017  0.63732886  0.62433301    -0.01100
C688        C  0.07516594  0.60203818  0.65286302    -0.24000
C689        C  0.09586486  0.57854222  0.66047777    -0.24200
C690        C  0.13479659  0.59949214  0.63544669    -0.01200
H691        H  0.04697113  0.59791978  0.67461280     0.12600
H692        H  0.08603410  0.55271190  0.68788681     0.12600
C693        C  0.22076959  0.57001482  0.64224054     0.80000
N694        N  0.19062954  0.57826353  0.62195871    -0.78300
C695        C  0.17183757  0.59628656  0.65344778     0.82500
N696        N  0.18380961  0.60686944  0.70500159    -0.78200
C697        C  0.21292020  0.59810414  0.72677013     0.82600
N698        N  0.23125266  0.57911203  0.69530009    -0.80000
C699        C  0.13284509  0.91551007  0.63733849     0.80000
N700        N  0.09891074  0.91121480  0.60981412    -0.78300
C701        C  0.06519736  0.91010279  0.63628059     0.82500
N702        N  0.06297814  0.90852036  0.69034521    -0.78200
C703        C  0.09523109  0.91024266  0.71855431     0.82600
N704        N  0.13115156  0.91535596  0.69223711    -0.80000
N705        N  0.49745842  0.87743601  0.59223103    -0.03700
C706        C  0.46355462  0.88376882  0.59964087    -0.01100
C707        C  0.47740372  0.92543173  0.61565071    -0.24000
C708        C  0.02033940  0.94353664  0.62080750    -0.24200
C709        C  0.03159713  0.91247332  0.60800804    -0.01200
H710        H  0.45827181  0.93831172  0.63440251     0.12600
H711        H  0.03945598  0.97299420  0.64178230     0.12600
N712        N  0.00916228  0.89084946  0.88026867    -0.03700
C713        C  0.47564161  0.89742033  0.87082338    -0.01100
C714        C  0.46406970  0.90869508  0.92067261    -0.24000
C715        C  0.48206560  0.89655055  0.95994362    -0.24200
C716        C  0.00755449  0.88325509  0.93250809    -0.01200
H717        H  0.43550238  0.91112573  0.92866989     0.12600
H718        H  0.47107821  0.89011399  0.00130719     0.12600
C719        C  0.22363614  0.57490430  0.86855648     0.80000
N720        N  0.19437822  0.58506740  0.89175402    -0.78300
C721        C  0.17819572  0.60575156  0.86351496     0.82500
N722        N  0.19167829  0.61623543  0.81225332    -0.78200
C723        C  0.21623098  0.60179064  0.78618591     0.82600
N724        N  0.23277019  0.58138319  0.81469009    -0.80000
C725        C  0.12280036  0.92648545  0.86249679     0.80000
N726        N  0.08532960  0.92031243  0.88476634    -0.78300
C727        C  0.05022399  0.90782034  0.85403932     0.82500
N728        N  0.05384992  0.90369696  0.80021097    -0.78200
C729        C  0.09148564  0.91090452  0.77721356     0.82600
N730        N  0.12551532  0.92151733  0.80834698    -0.80000
C731        C  0.29169920  0.86063300  0.87632068     0.80000
N732        N  0.29080550  0.86228107  0.82116483    -0.78300
C733        C  0.32012684  0.89675744  0.79453772     0.82500
N734        N  0.35063393  0.92802571  0.82283981    -0.78200
C735        C  0.35218039  0.92689395  0.87675314     0.82600
N736        N  0.32186026  0.89406249  0.90393198    -0.80000
C737        C  0.37194578  0.80119824  0.85546914     0.80000
N738        N  0.40651458  0.83399424  0.87648016    -0.78300
C739        C  0.43811934  0.86199447  0.84451601     0.82500
N740        N  0.43486179  0.85616180  0.79025993    -0.78200
C741        C  0.39992944  0.82350640  0.76812771     0.82600
N742        N  0.36872383  0.79620490  0.80091158    -0.80000
N743        N  0.37632827  0.99822516  0.90987138    -0.03700
C744        C  0.41081638  0.53288838  0.89425842    -0.01100
C745        C  0.44268390  0.52269592  0.88211984    -0.24000
C746        C  0.42567878  0.97983667  0.88768155    -0.24200
C747        C  0.38384061  0.96497057  0.90321174    -0.01200
H748        H  0.47205869  0.54237930  0.86148376     0.12600
H749        H  0.43947288  0.96126201  0.86966317     0.12600
C750        C  0.41138197  0.63303005  0.86495957     0.80000
N751        N  0.40707062  0.59905445  0.89239990    -0.78300
C752        C  0.40757789  0.56600647  0.86591359     0.82500
N753        N  0.40729527  0.56429361  0.81178527    -0.78200
C754        C  0.40870320  0.59642287  0.78361803     0.82600
N755        N  0.41236593  0.63179040  0.81006484    -0.80000
C756        C  0.06595045  0.71932980  0.86034829     0.80000
N757        N  0.07442155  0.68936631  0.88084233    -0.78300
C758        C  0.09327539  0.67116874  0.84971685     0.82500
N759        N  0.10410014  0.68331704  0.79832499    -0.78200
C760        C  0.09507027  0.71218571  0.77639413     0.82600
N761        N  0.07553708  0.73012207  0.80750888    -0.80000
N762        N  0.13286759  0.63856116  0.89059717    -0.03700
C763        C  0.13692813  0.60364473  0.87811528    -0.01100
C764        C  0.10152328  0.57570763  0.85033956    -0.24000
C765        C  0.07707134  0.59551398  0.84340551    -0.24200
C766        C  0.09767315  0.63480280  0.86790194    -0.01200
H767        H  0.09761099  0.54740309  0.82893675     0.12600
H768        H  0.05068139  0.58484373  0.81672691     0.12600
O769        O  0.68042425  0.49247185  0.10819291    -0.81100
O770        O  0.82562075  0.48775977  0.97428748    -0.65800
O771        O  0.75180366  0.02415024  0.03907604    -1.12400
C772        C  0.66178998  0.44383688  0.89483960     1.05800
O773        O  0.81573281  0.00472087  0.89298225    -0.79000
O774        O  0.75401013  0.02853073  0.87254145    -0.66600
Ni775      Ni  0.74127959  0.02004487  0.11531183     1.34900
C776        C  0.73444423  0.04583602  0.89746058     0.84500
O777        O  0.83543217  0.04106391  0.05663708    -0.79500
O778        O  0.80084078  0.04799816  0.13015685    -0.89800
C779        C  0.83698349  0.99602939  0.92588707     0.84100
O780        O  0.74146138  0.46770806  0.12808255    -0.68000
O781        O  0.69541863  0.44790993  0.87076012    -0.87300
C782        C  0.76189956  0.45108336  0.10379256     0.84900
C783        C  0.83456453  0.05266592  0.10572272     1.06500
H784        H  0.73388431  0.44316544  0.97073660     0.38300
O785        O  0.74428667  0.47238801  0.96196922    -1.10000
O786        O  0.72008118  0.03660612  0.94524568    -0.66600
Ni787      Ni  0.70616454  0.49025177  0.99208883     1.26300
O788        O  0.77659118  0.46043546  0.05613817    -0.66800
O789        O  0.66091890  0.45595667  0.94370013    -0.79100
C790        C  0.65922992  0.50107504  0.07508986     0.84300
O791        O  0.67043041  0.00885223  0.02652953    -0.66300
Ni792      Ni  0.75490189  0.47650580  0.88570523     1.27400
Ni793      Ni  0.78997534  0.00640731  0.00877796     1.26100
H794        H  0.76222925  0.05340026  0.03042987     0.38900
O795        O  0.68341647  0.20912608  0.89633127    -0.81100
O796        O  0.82752384  0.32830271  0.03400333    -0.65800
O797        O  0.75157678  0.23023220  0.95924847    -1.12400
C798        C  0.66183559  0.22037322  0.11230620     1.05800
O799        O  0.81263421  0.28961797  0.10647306    -0.79000
O800        O  0.74367201  0.21278487  0.12841535    -0.66600
Ni801      Ni  0.74254448  0.22962112  0.88406302     1.34900
C802        C  0.72499393  0.17974216  0.09936843     0.84500
O803        O  0.83485023  0.29123182  0.93948273    -0.79500
O804        O  0.80131865  0.25001929  0.86775411    -0.89800
C805        C  0.83381807  0.32434235  0.08293748     0.84100
O806        O  0.75231467  0.28623035  0.87440046    -0.68000
O807        O  0.69465788  0.24897598  0.13487018    -0.87300
C808        C  0.77118131  0.31931309  0.90337724     0.84900
C809        C  0.83413732  0.27865820  0.89024479     1.06500
H810        H  0.73480586  0.28940946  0.03852325     0.38300
O811        O  0.74443793  0.26876219  0.04344758    -1.10000
O812        O  0.71840156  0.18076448  0.04938931    -0.66600
Ni813      Ni  0.70549687  0.21858712  0.00964763     1.26300
O814        O  0.77756793  0.31827848  0.95342306    -0.66800
O815        O  0.66114125  0.20785996  0.06306144    -0.79100
C816        C  0.66254284  0.17430199  0.91976206     0.84300
O817        O  0.66855278  0.17056671  0.96885737    -0.66300
Ni818      Ni  0.75347564  0.26933683  0.11862543     1.27400
Ni819      Ni  0.79050866  0.28041813  0.99304298     1.26100
H820        H  0.76120252  0.20958476  0.96420745     0.38900
O821        O  0.82475032  0.02011962  0.59186756    -0.81100
O822        O  0.66219111  0.49224246  0.49416271    -0.65800
O823        O  0.75340218  0.47700789  0.53345688    -1.12400
C824        C  0.82575055  0.06819463  0.39280946     1.05800
O825        O  0.67384745  0.48254295  0.40864128    -0.79000
O826        O  0.73913596  0.47008498  0.37341561    -0.66600
Ni827      Ni  0.76638687  0.48363284  0.60873659     1.34900
C828        C  0.76649422  0.46091656  0.39080034     0.84500
O829        O  0.67003859  0.44072582  0.55850206    -0.79500
O830        O  0.70813287  0.44855889  0.63166402    -0.89800
C831        C  0.65162889  0.48778470  0.44616782     0.84100
O832        O  0.75983037  0.03221047  0.62791242    -0.68000
O833        O  0.79058867  0.05387467  0.36891355    -0.87300
C834        C  0.73271633  0.04167610  0.61055732     0.84900
C835        C  0.67304537  0.43476986  0.60769032     1.06500
H836        H  0.74967693  0.05356902  0.47912564     0.38300
O837        O  0.74571039  0.02611375  0.46711640    -1.10000
O838        O  0.78699762  0.47792739  0.43297928    -0.66600
Ni839      Ni  0.79207912  0.01950739  0.48684425     1.26300
O840        O  0.71253450  0.02530540  0.56793237    -0.66800
O841        O  0.82901874  0.06261535  0.44207286    -0.79100
C842        C  0.84672392  0.01403030  0.55484021     0.84300
O843        O  0.83714107  0.01105821  0.50656221    -0.66300
Ni844      Ni  0.73243054  0.01882766  0.39191553     1.27400
Ni845      Ni  0.70716133  0.48378685  0.51382920     1.26100
H846        H  0.74935350  0.44958574  0.52119879     0.38900
O847        O  0.51742128  0.32494899  0.90923606    -0.81100
O848        O  0.98699446  0.16073768  0.00702271    -0.65800
O849        O  0.97423631  0.25381462  0.96859763    -1.12400
C850        C  0.56674073  0.32564326  0.10724602     1.05800
O851        O  0.98132210  0.17337970  0.09341981    -0.79000
O852        O  0.96761643  0.23814520  0.12648312    -0.66600
Ni853      Ni  0.98082394  0.26643082  0.89315469     1.34900
C854        C  0.95976512  0.26676050  0.11047522     0.84500
O855        O  0.93519683  0.17020796  0.94437196    -0.79500
O856        O  0.94559597  0.20815745  0.87047868    -0.89800
C857        C  0.98523026  0.15098582  0.05505378     0.84100
O858        O  0.52937251  0.25959010  0.87503615    -0.68000
O859        O  0.55113775  0.29069800  0.13172165    -0.87300
C860        C  0.53752575  0.23134322  0.89161834     0.84900
C861        C  0.93039297  0.17314075  0.89479201     1.06500
H862        H  0.55025628  0.24771079  0.02106085     0.38300
O863        O  0.52333890  0.24470444  0.03365194    -1.10000
O864        O  0.97775053  0.28822366  0.06929632    -0.66600
Ni865      Ni  0.51801080  0.29193371  0.01415177     1.26300
O866        O  0.51993020  0.21035641  0.93320547    -0.66800
O867        O  0.56260885  0.32841288  0.05747296    -0.79100
C868        C  0.51265762  0.34730337  0.94690800     0.84300
O869        O  0.51058811  0.33779357  0.99508110    -0.66300
Ni870      Ni  0.51682343  0.23224740  0.10910287     1.27400
Ni871      Ni  0.97958848  0.20661395  0.98805284     1.26100
H872        H  0.94726127  0.25080241  0.98125297     0.38900
O873        O  0.99218220  0.18125126  0.39383248    -0.81100
O874        O  0.48907512  0.32761277  0.52698503    -0.65800
O875        O  0.52450338  0.25279702  0.46254524    -1.12400
C876        C  0.94390565  0.16323675  0.60720306     1.05800
O877        O  0.50486607  0.31728186  0.60886707    -0.79000
O878        O  0.52828186  0.25520941  0.62960027    -0.66600
Ni879      Ni  0.52048249  0.24201867  0.38632074     1.34900
C880        C  0.54569178  0.23569198  0.60476555     0.84500
O881        O  0.54160531  0.33642139  0.44387303    -0.79500
O882        O  0.54921111  0.30148181  0.37104119    -0.89800
C883        C  0.49637468  0.33856428  0.57577543     0.84100
O884        O  0.96854561  0.24296075  0.37329344    -0.68000
O885        O  0.94770456  0.19692569  0.63095281    -0.87300
C886        C  0.95150260  0.26288140  0.39795691     0.84900
C887        C  0.55361813  0.33532409  0.39499394     1.06500
H888        H  0.94389945  0.23546414  0.53069379     0.38300
O889        O  0.97306408  0.24584641  0.53968148    -1.10000
O890        O  0.53693352  0.22158388  0.55674237    -0.66600
Ni891      Ni  0.99060549  0.20734215  0.50977653     1.26300
O892        O  0.96081688  0.27753460  0.44567404    -0.66800
O893        O  0.95639182  0.16227071  0.55854061    -0.79100
C894        C  0.00104900  0.16007371  0.42662032     0.84300
O895        O  0.00891813  0.17123399  0.47529052    -0.66300
Ni896      Ni  0.97654274  0.25642073  0.61598848     1.27400
Ni897      Ni  0.50715681  0.29137300  0.49255989     1.26100
H898        H  0.55371912  0.26314940  0.47125483     0.38900
N899        N  0.49930786  0.12093341  0.41008049    -0.03700
C900        C  0.96501416  0.08659284  0.39299718    -0.01100
C901        C  0.97553914  0.05506333  0.37999787    -0.24000
C902        C  0.51830402  0.07227212  0.38596841    -0.24200
C903        C  0.53281371  0.11390701  0.40264251    -0.01200
H904        H  0.95624912  0.02604957  0.35825359     0.12600
H905        H  0.53705627  0.05905564  0.36697309     0.12600
C906        C  0.77808735  0.43188054  0.35989848     0.80000
N907        N  0.80755222  0.42286721  0.38090851    -0.78300
C908        C  0.82517582  0.40309959  0.35037749     0.82500
N909        N  0.81312689  0.39220142  0.29889280    -0.78200
C910        C  0.78503973  0.40203856  0.27628631     0.82600
N911        N  0.76752860  0.42224111  0.30694087    -0.80000
C912        C  0.86570009  0.08726197  0.36277568     0.80000
N913        N  0.86665406  0.08534570  0.30789764    -0.78300
C914        C  0.90169147  0.08808015  0.28165294     0.82500
N915        N  0.93359648  0.08922969  0.31003343    -0.78200
C916        C  0.93224042  0.09011614  0.36416934     0.82600
N917        N  0.89979080  0.09199164  0.39031351    -0.80000
N918        N  0.85900819  0.36427594  0.39087043    -0.03700
C919        C  0.89417989  0.36085384  0.37794821    -0.01100
C920        C  0.92153321  0.39655700  0.35032749    -0.24000
C921        C  0.90110064  0.42049151  0.34389609    -0.24200
C922        C  0.86197894  0.39929997  0.36846791    -0.01200
H923        H  0.94986419  0.40098898  0.32866810     0.12600
H924        H  0.91124753  0.44691167  0.31740622     0.12600
C925        C  0.92282369  0.27387355  0.36857931     0.80000
N926        N  0.91243111  0.30305572  0.39163723    -0.78300
C927        C  0.89267172  0.31986564  0.36271233     0.82500
N928        N  0.88335303  0.30709728  0.31096188    -0.78200
C929        C  0.89783601  0.28240926  0.28531912     0.82600
N930        N  0.91733413  0.26527042  0.31445302    -0.80000
C931        C  0.57123597  0.37429576  0.36245173     0.80000
N932        N  0.57533727  0.37129663  0.30813386    -0.78300
C933        C  0.58569214  0.40530061  0.27699510     0.82500
N934        N  0.59325557  0.44302223  0.30000169    -0.78200
C935        C  0.59022803  0.44697354  0.35387580     0.82600
N936        N  0.57837073  0.41210241  0.38482410    -0.80000
N937        N  0.60671053  0.48819343  0.37955987    -0.03700
C938        C  0.60013283  0.02150349  0.36893841    -0.01100
C939        C  0.58850078  0.03354330  0.41819295    -0.24000
C940        C  0.60072322  0.01624460  0.45823584    -0.24200
C941        C  0.61449590  0.49070820  0.43177930    -0.01200
H942        H  0.58622138  0.06228428  0.42541790     0.12600
H943        H  0.60730600  0.02812066  0.49928183     0.12600
C944        C  0.63723379  0.20586259  0.37524175     0.80000
N945        N  0.63546449  0.20633878  0.32002127    -0.78300
C946        C  0.60079095  0.17700352  0.29353460     0.82500
N947        N  0.56940060  0.14695807  0.32206852    -0.78200
C948        C  0.57052715  0.14595303  0.37605858     0.82600
N949        N  0.60364541  0.17618585  0.40305175    -0.80000
C950        C  0.69657907  0.12495817  0.35453337     0.80000
N951        N  0.66400572  0.09015544  0.37524168    -0.78300
C952        C  0.63589978  0.05878781  0.34299588     0.82500
N953        N  0.64164257  0.06226975  0.28880036    -0.78200
C954        C  0.67427083  0.09726828  0.26695749     0.82600
N955        N  0.70150017  0.12844539  0.29998749    -0.80000
C956        C  0.77350600  0.42296978  0.13348171     0.80000
N957        N  0.80309804  0.41313321  0.11065484    -0.78300
C958        C  0.82018835  0.39372102  0.13969307     0.82500
N959        N  0.80743811  0.38428441  0.19136564    -0.78200
C960        C  0.78226040  0.39821213  0.21681165     0.82600
N961        N  0.76482753  0.41739286  0.18756915    -0.80000
C962        C  0.87365296  0.07017013  0.13792736     0.80000
N963        N  0.87098438  0.07542510  0.19201893    -0.78300
C964        C  0.90503931  0.08620946  0.22313351     0.82500
N965        N  0.94257837  0.09312816  0.20027486    -0.78200
C966        C  0.94626779  0.08898187  0.14652807     0.82600
N967        N  0.91119875  0.07645940  0.11566574    -0.80000
N968        N  0.86420000  0.35978206  0.11184457    -0.03700
C969        C  0.86101272  0.39515099  0.12434123    -0.01100
C970        C  0.89683664  0.42269346  0.15169472    -0.24000
C971        C  0.92063945  0.40217634  0.15844932    -0.24200
C972        C  0.89923846  0.36286621  0.13424729    -0.01200
H973        H  0.90144849  0.45126145  0.17300837     0.12600
H974        H  0.94717074  0.41247661  0.18481558     0.12600
C975        C  0.93122517  0.27860255  0.14191698     0.80000
N976        N  0.92186195  0.26799713  0.19488598    -0.78300
C977        C  0.90203662  0.28572069  0.22591402     0.82500
N978        N  0.89251735  0.31417380  0.20374061    -0.78200
C979        C  0.90313546  0.32616722  0.15225333     0.82600
N980        N  0.92235579  0.30825512  0.12130244    -0.80000
C981        C  0.58519226  0.36570828  0.13708896     0.80000
N982        N  0.58368250  0.36675430  0.19194607    -0.78300
C983        C  0.58645128  0.40175117  0.21837918     0.82500
N984        N  0.58734207  0.43364496  0.19017229    -0.78200
C985        C  0.58787786  0.43222713  0.13598891     0.82600
N986        N  0.58943995  0.39963783  0.10960579    -0.80000
N987        N  0.62027069  0.99977487  0.09130377    -0.03700
C988        C  0.58539558  0.46564919  0.10736990    -0.01100
C989        C  0.55426574  0.47684437  0.11980220    -0.24000
C990        C  0.57219581  0.01975971  0.11428946    -0.24200
C991        C  0.61381152  0.03364707  0.09838060    -0.01200
H992        H  0.52489378  0.45778343  0.14083068     0.12600
H993        H  0.55928856  0.03892284  0.13289173     0.12600
C994        C  0.62401631  0.19765290  0.14698292     0.80000
N995        N  0.58956187  0.16486208  0.12573625    -0.78300
C996        C  0.55828912  0.13619785  0.15744475     0.82500
N997        N  0.56170963  0.14142481  0.21179333    -0.78200
C998        C  0.59643472  0.17425053  0.23415998     0.82600
N999        N  0.62732267  0.20214924  0.20155750    -0.80000
C1000       C  0.70505900  0.13838167  0.12622223     0.80000
N1001       N  0.70582320  0.13657951  0.18137864    -0.78300
C1002       C  0.67725949  0.10146977  0.20764599     0.82500
N1003       N  0.64772783  0.06960404  0.17896956    -0.78200
C1004       C  0.64607059  0.07110720  0.12512957     0.82600
N1005       N  0.67548562  0.10474074  0.09830456    -0.80000
N1006       N  0.98740967  0.10619782  0.12062775    -0.03700
C1007       C  0.52127933  0.10036025  0.13068092    -0.01100
C1008       C  0.53354375  0.08967125  0.08091017    -0.24000
C1009       C  0.51552708  0.10163759  0.04142911    -0.24200
C1010       C  0.98943055  0.11432165  0.06855364    -0.01200
H1011       H  0.56252111  0.08797623  0.07322501     0.12600
H1012       H  0.52708243  0.10870488  0.00035365     0.12600
O1013       O  0.70780458  0.18453766  0.60545058    -0.81100
O1014       O  0.82786898  0.32783999  0.46894925    -0.65800
O1015       O  0.72928079  0.25282822  0.54314373    -1.12400
C1016       C  0.71885495  0.16270412  0.38966227     1.05800
O1017       O  0.78874094  0.31330593  0.39683943    -0.79000
O1018       O  0.71175889  0.24440412  0.37344177    -0.66600
Ni1019     Ni  0.72831990  0.24362925  0.61824685     1.34900
C1020       C  0.67863938  0.22620445  0.40239533     0.84500
O1021       O  0.79100603  0.33569252  0.56381098    -0.79500
O1022       O  0.74871295  0.30240526  0.63476172    -0.89800
C1023       C  0.82370625  0.33413300  0.42004608     0.84100
O1024       O  0.78480259  0.25330814  0.62880169    -0.68000
O1025       O  0.74796948  0.19540606  0.36764500    -0.87300
C1026       C  0.81793964  0.27150393  0.59988578     0.84900
C1027       C  0.77780766  0.33511319  0.61275150     1.06500
H1028       H  0.78767868  0.23489242  0.46416551     0.38300
O1029       O  0.76743758  0.24502454  0.45916062    -1.10000
O1030       O  0.67968380  0.22036781  0.45263263    -0.66600
Ni1031     Ni  0.71693226  0.20658513  0.49248723     1.26300
O1032       O  0.81698638  0.27744192  0.54966496    -0.66800
O1033       O  0.70569580  0.16212201  0.43860725    -0.79100
C1034       C  0.67282418  0.16380723  0.58225545     0.84300
O1035       O  0.66876878  0.17004992  0.53330925    -0.66300
Ni1036     Ni  0.76829657  0.25419702  0.38406834     1.27400
Ni1037     Ni  0.77977398  0.29126300  0.50983757     1.26100
H1038       H  0.70905614  0.26297342  0.53809659     0.38900
C1039       C  0.79995691  0.37293880  0.64781296     0.80000
N1040       N  0.79528023  0.36958553  0.70240648    -0.78300
C1041       C  0.82245403  0.40102709  0.73521997     0.82500
N1042       N  0.85472754  0.43616062  0.71308674    -0.78200
C1043       C  0.86019198  0.43950822  0.65883729     0.82600
N1044       N  0.83219049  0.40785596  0.62685868    -0.80000
C1045       C  0.85927206  0.29174937  0.62708949     0.80000
N1046       N  0.86094926  0.29135234  0.68231727    -0.78300
C1047       C  0.89574830  0.32046859  0.70876520     0.81900
N1048       N  0.92735348  0.35026886  0.68020086    -0.78200
C1049       C  0.92614060  0.35138297  0.62625062     0.82600
N1050       N  0.89290600  0.32133658  0.59927694    -0.80000
N1051       N  0.88948940  0.01027183  0.62239819    -0.03700
C1052       C  0.89579033  0.47670543  0.63252425    -0.01100
C1053       C  0.90710168  0.46464647  0.58304816    -0.24000
C1054       C  0.89526786  0.48248809  0.54326366    -0.24200
C1055       C  0.88215252  0.00838123  0.57006321    -0.01200
H1056       H  0.90923976  0.43585324  0.57554577     0.12600
H1057       H  0.88895813  0.47122151  0.50195469     0.12600
C1058       C  0.92631403  0.12429161  0.63973810     0.80000
N1059       N  0.92135013  0.12717211  0.69390508    -0.78300
C1060       C  0.91015242  0.09300907  0.72502407     0.82500
N1061       N  0.90264392  0.05525985  0.70209908    -0.78200
C1062       C  0.90667264  0.05146169  0.64835470     0.82600
N1063       N  0.91951310  0.08654713  0.61752009    -0.80000
C1064       C  0.57421325  0.22451055  0.63410173     0.80000
N1065       N  0.57973144  0.23294553  0.68823884    -0.78300
C1066       C  0.59935565  0.21579360  0.71710050     0.82500
N1067       N  0.61382822  0.19120568  0.69122099    -0.78200
C1068       C  0.60424670  0.17843726  0.63953030     0.82600
N1069       N  0.58448740  0.19533135  0.61083186    -0.80000
N1070       N  0.63742607  0.13378911  0.61147318    -0.03700
C1071       C  0.60232590  0.13733252  0.62432447    -0.01100
C1072       C  0.57517036  0.10204063  0.65285137    -0.24000
C1073       C  0.59587043  0.07854651  0.66047158    -0.24200
C1074       C  0.63480396  0.09949816  0.63544590    -0.01200
H1075       H  0.54697347  0.09792072  0.67459695     0.12600
H1076       H  0.58603838  0.05271594  0.68788038     0.12600
C1077       C  0.72076710  0.07000822  0.64225340     0.80000
N1078       N  0.69063070  0.07826053  0.62196766    -0.78300
C1079       C  0.67184432  0.09629243  0.65345080     0.82500
N1080       N  0.68381528  0.10687610  0.70500532    -0.78200
C1081       C  0.71291829  0.09810206  0.72677977     0.82600
N1082       N  0.73124754  0.07910468  0.69531363    -0.80000
C1083       C  0.63284372  0.41551260  0.63732782     0.80000
N1084       N  0.59890969  0.41121902  0.60980434    -0.78300
C1085       C  0.56519767  0.41010915  0.63627186     0.82500
N1086       N  0.56297883  0.40852651  0.69033655    -0.78200
C1087       C  0.59523097  0.41024537  0.71854408     0.82600
N1088       N  0.63115029  0.41535689  0.69222599    -0.80000
N1089       N  0.99745789  0.37743379  0.59222803    -0.03700
C1090       C  0.96355253  0.38376373  0.59963776    -0.01100
C1091       C  0.97739821  0.42542677  0.61564349    -0.24000
C1092       C  0.52033366  0.44353528  0.62079691    -0.24200
C1093       C  0.53159481  0.41247398  0.60799960    -0.01200
H1094       H  0.95826472  0.43830501  0.63439503     0.12600
H1095       H  0.53944912  0.47299487  0.64176826     0.12600
N1096       N  0.50916790  0.39084457  0.88026679    -0.03700
C1097       C  0.97564427  0.39741064  0.87081938    -0.01100
C1098       C  0.96407176  0.40868709  0.92066692    -0.24000
C1099       C  0.98207258  0.39655013  0.95994015    -0.24200
C1100       C  0.50756312  0.38325515  0.93250745    -0.01200
H1101       H  0.93550277  0.41111487  0.92866314     0.12600
H1102       H  0.97108683  0.39011637  0.00130460     0.12600
C1103       C  0.72363018  0.07489931  0.86856855     0.80000
N1104       N  0.69437115  0.08506052  0.89176616    -0.78300
C1105       C  0.67818543  0.10574108  0.86352620     0.82500
N1106       N  0.69166481  0.11622259  0.81226303    -0.78200
C1107       C  0.71622153  0.10178231  0.78619679     0.82600
N1108       N  0.73276350  0.08137769  0.81470180    -0.80000
C1109       C  0.62280546  0.42648109  0.86248322     0.80000
N1110       N  0.58533520  0.42030528  0.88475707    -0.78300
C1111       C  0.55022803  0.40781375  0.85403354     0.82500
N1112       N  0.55385159  0.40369401  0.80020413    -0.78200
C1113       C  0.59148674  0.41090362  0.77720296     0.82600
N1114       N  0.62551803  0.42151547  0.80833287    -0.80000
C1115       C  0.79170384  0.36063081  0.87631825     0.80000
N1116       N  0.79080774  0.36228049  0.82116300    -0.78300
C1117       C  0.82012850  0.39675742  0.79453616     0.82500
N1118       N  0.85063710  0.42802445  0.82283756    -0.78200
C1119       C  0.85218707  0.42689054  0.87675002     0.82600
N1120       N  0.82186800  0.39405836  0.90392915    -0.80000
C1121       C  0.87194543  0.30119126  0.85546578     0.80000
N1122       N  0.90651670  0.33398432  0.87647706    -0.78300
C1123       C  0.93812359  0.36198212  0.84451293     0.82500
N1124       N  0.93486639  0.35614906  0.79025700    -0.78200
C1125       C  0.89993217  0.32349638  0.76812467     0.82600
N1126       N  0.86872382  0.29619805  0.80090819    -0.80000
N1127       N  0.87633312  0.49822237  0.90986249    -0.03700
C1128       C  0.91081293  0.03289124  0.89426916    -0.01100
C1129       C  0.94267983  0.02269768  0.88213044    -0.24000
C1130       C  0.92568483  0.47983501  0.88767619    -0.24200
C1131       C  0.88384662  0.46496817  0.90320749    -0.01200
H1132       H  0.97205516  0.04238109  0.86149540     0.12600
H1133       H  0.93947995  0.46126007  0.86966158     0.12600
C1134       C  0.91137393  0.13302970  0.86496189     0.80000
N1135       N  0.90705631  0.09905211  0.89240339    -0.78300
C1136       C  0.90757628  0.06600884  0.86592006     0.82500
N1137       N  0.90730942  0.06430089  0.81179114    -0.78200
C1138       C  0.90871578  0.09642832  0.78362157     0.82600
N1139       N  0.91236825  0.13179264  0.81006700    -0.80000
C1140       C  0.56594498  0.21932267  0.86034694     0.80000
N1141       N  0.57441883  0.18936138  0.88084141    -0.78300
C1142       C  0.59327629  0.17116690  0.84971727     0.82500
N1143       N  0.60410170  0.18331582  0.79832541    -0.78200
C1144       C  0.59506779  0.21218150  0.77639344     0.82600
N1145       N  0.57553136  0.23011498  0.80750752    -0.80000
N1146       N  0.63286375  0.13855669  0.89060462    -0.03700
C1147       C  0.63692008  0.10363682  0.87813114    -0.01100
C1148       C  0.60151396  0.07569931  0.85035760    -0.24000
C1149       C  0.57706734  0.09550983  0.84341254    -0.24200
C1150       C  0.59767243  0.13480040  0.86790309    -0.01200
H1151       H  0.59759875  0.04739143  0.82896108     0.12600
H1152       H  0.55067827  0.08483958  0.81673249     0.12600
O1153       O  0.68041529  0.99247275  0.10820813    -0.81100
O1154       O  0.82561908  0.98776480  0.97430029    -0.65800
O1155       O  0.75180886  0.52415221  0.03905557    -1.12400
C1156       C  0.66178346  0.94383793  0.89485621     1.05800
O1157       O  0.81574109  0.50472460  0.89297127    -0.79000
O1158       O  0.75402205  0.52854055  0.87253132    -0.66600
Ni1159     Ni  0.74128817  0.52005567  0.11529229     1.34900
C1160       C  0.73444800  0.54583874  0.89744734     0.84500
O1161       O  0.83543580  0.54106003  0.05662343    -0.79500
O1162       O  0.80084917  0.54801956  0.13013255    -0.89800
C1163       C  0.83698780  0.49602700  0.92587559     0.84100
O1164       O  0.74144056  0.96768918  0.12808620    -0.68000
O1165       O  0.69540986  0.94790057  0.87078140    -0.87300
C1166       C  0.76188979  0.95107416  0.10380139     0.84900
C1167       C  0.83457027  0.55267454  0.10570364     1.06500
H1168       H  0.73387763  0.94316556  0.97075882     0.38300
O1169       O  0.74428073  0.97238703  0.96198795    -1.10000
O1170       O  0.72007598  0.53660001  0.94522728    -0.66600
Ni1171     Ni  0.70616056  0.99025503  0.99210550     1.26300
O1172       O  0.77659406  0.96043803  0.05615416    -0.66800
O1173       O  0.66091429  0.95596571  0.94371329    -0.79100
C1174       C  0.65922475  0.00107997  0.07510315     0.84300
O1175       O  0.67043123  0.50884408  0.02651450    -0.66300
Ni1176     Ni  0.75489321  0.97649889  0.88572276     1.27400
Ni1177     Ni  0.78997941  0.50640618  0.00876189     1.26100
H1178       H  0.76223409  0.55340118  0.03040379     0.38900
O1179       O  0.68341939  0.70913019  0.89632938    -0.81100
O1180       O  0.82752218  0.82830198  0.03400813    -0.65800
O1181       O  0.75157802  0.73023350  0.95924862    -1.12400
C1182       C  0.66183396  0.72037006  0.11230442     1.05800
O1183       O  0.81263176  0.78961334  0.10647454    -0.79000
O1184       O  0.74366766  0.71278016  0.12841639    -0.66600
Ni1185     Ni  0.74254723  0.72962389  0.88406320     1.34900
C1186       C  0.72499247  0.67973783  0.09936788     0.84500
O1187       O  0.83485083  0.79123550  0.93948576    -0.79500
O1188       O  0.80132151  0.75002144  0.86775717    -0.89800
C1189       C  0.83381561  0.82433912  0.08294171     0.84100
O1190       O  0.75231775  0.78623299  0.87440133    -0.68000
O1191       O  0.69465543  0.74897328  0.13486944    -0.87300
C1192       C  0.77118083  0.81931540  0.90337941     0.84900
C1193       C  0.83413887  0.77866217  0.89024792     1.06500
H1194       H  0.73480423  0.78940677  0.03852580     0.38300
O1195       O  0.74443677  0.76876023  0.04344917    -1.10000
O1196       O  0.71840117  0.68076129  0.04938823    -0.66600
Ni1197     Ni  0.70549716  0.71858581  0.00964695     1.26300
O1198       O  0.77756775  0.81828057  0.95342542    -0.66800
O1199       O  0.66114075  0.70785682  0.06305983    -0.79100
C1200       C  0.66254491  0.67430524  0.91975779     0.84300
O1201       O  0.66855406  0.67056742  0.96885271    -0.66300
Ni1202     Ni  0.75347325  0.76933301  0.11862681     1.27400
Ni1203     Ni  0.79050841  0.78041906  0.99304499     1.26100
H1204       H  0.76120453  0.70958645  0.96420730     0.38900
O1205       O  0.82474901  0.52012377  0.59185958    -0.81100
O1206       O  0.66219053  0.99223896  0.49417458    -0.65800
O1207       O  0.75340240  0.97700435  0.53346593    -1.12400
C1208       C  0.82574703  0.56819487  0.39279358     1.05800
O1209       O  0.67385099  0.98254922  0.40865134    -0.79000
O1210       O  0.73913598  0.97008997  0.37342239    -0.66600
Ni1211     Ni  0.76638791  0.98362958  0.60874528     1.34900
C1212       C  0.76649129  0.96091763  0.39080741     0.84500
O1213       O  0.67003920  0.94071902  0.55851016    -0.79500
O1214       O  0.70813382  0.94855650  0.63167342    -0.89800
C1215       C  0.65163135  0.98778787  0.44617877     0.84100
O1216       O  0.75982845  0.53221316  0.62790305    -0.68000
O1217       O  0.79058436  0.55387086  0.36889856    -0.87300
C1218       C  0.73271769  0.54168210  0.61054482     0.84900
C1219       C  0.67304610  0.93476563  0.60769963     1.06500
H1220       H  0.74967628  0.55357067  0.47910860     0.38300
O1221       O  0.74570964  0.52611407  0.46710255    -1.10000
O1222       O  0.78699485  0.97792627  0.43298707    -0.66600
Ni1223     Ni  0.79207908  0.51950976  0.48683291     1.26300
O1224       O  0.71253709  0.52531293  0.56791845    -0.66800
O1225       O  0.82901737  0.56261563  0.44205688    -0.79100
C1226       C  0.84672311  0.51403402  0.55483334     0.84300
O1227       O  0.83714193  0.51106310  0.50655468    -0.66300
Ni1228     Ni  0.73242712  0.51882193  0.39190268     1.27400
Ni1229     Ni  0.70716129  0.98378301  0.51383946     1.26100
H1230       H  0.74935453  0.94958344  0.52120754     0.38900
O1231       O  0.51741523  0.82495118  0.90923264    -0.81100
O1232       O  0.98699927  0.66074334  0.00701912    -0.65800
O1233       O  0.97423590  0.75381579  0.96859353    -1.12400
C1234       C  0.56673332  0.82564683  0.10724910     1.05800
O1235       O  0.98132566  0.67338292  0.09341674    -0.79000
O1236       O  0.96761682  0.73814631  0.12648556    -0.66600
Ni1237     Ni  0.98082541  0.76643195  0.89315029     1.34900
C1238       C  0.95976105  0.76675800  0.11047502     0.84500
O1239       O  0.93520025  0.67021029  0.94436912    -0.79500
O1240       O  0.94560368  0.70815761  0.87047308    -0.89800
C1241       C  0.98523523  0.65099069  0.05504952     0.84100
O1242       O  0.52937791  0.75959776  0.87503698    -0.68000
O1243       O  0.55113581  0.79070097  0.13172284    -0.87300
C1244       C  0.53753069  0.73135047  0.89161885     0.84900
C1245       C  0.93039962  0.67314164  0.89478801     1.06500
H1246       H  0.55025672  0.74771766  0.02105984     0.38300
O1247       O  0.52333863  0.74470886  0.03365083    -1.10000
O1248       O  0.97774287  0.78821922  0.06929331    -0.66600
Ni1249     Ni  0.51800605  0.79193549  0.01415100     1.26300
O1250       O  0.51993318  0.71036206  0.93320405    -0.66800
O1251       O  0.56259997  0.82841696  0.05747645    -0.79100
C1252       C  0.51264953  0.84730321  0.94690630     0.84300
O1253       O  0.51057923  0.83779218  0.99507913    -0.66300
Ni1254     Ni  0.51682391  0.73225040  0.10910175     1.27400
Ni1255     Ni  0.97959064  0.70661747  0.98805016     1.26100
H1256       H  0.94726053  0.75080180  0.98124638     0.38900
O1257       O  0.99218045  0.68125852  0.39383541    -0.81100
O1258       O  0.48907048  0.82761435  0.52698695    -0.65800
O1259       O  0.52450464  0.75280315  0.46254775    -1.12400
C1260       C  0.94390968  0.66323986  0.60720458     1.05800
O1261       O  0.50486809  0.81728512  0.60886608    -0.79000
O1262       O  0.52828758  0.75521599  0.62959994    -0.66600
Ni1263     Ni  0.52048539  0.74202538  0.38632366     1.34900
C1264       C  0.54569596  0.73569675  0.60476616     0.84500
O1265       O  0.54160090  0.83642530  0.44387307    -0.79500
O1266       O  0.54921952  0.80148858  0.37104616    -0.89800
C1267       C  0.49637287  0.83856625  0.57577690     0.84100
O1268       O  0.96855179  0.74297242  0.37329041    -0.68000
O1269       O  0.94771106  0.69692930  0.63095593    -0.87300
C1270       C  0.95150348  0.76288693  0.39795652     0.84900
C1271       C  0.55362136  0.83532967  0.39499733     1.06500
H1272       H  0.94389993  0.73546585  0.53069791     0.38300
O1273       O  0.97306557  0.74584959  0.53968387    -1.10000
O1274       O  0.53693673  0.72158791  0.55674345    -0.66600
Ni1275     Ni  0.99060851  0.70734678  0.50977783     1.26300
O1276       O  0.96081318  0.77753487  0.44567657    -0.66800
O1277       O  0.95639521  0.66227427  0.55854151    -0.79100
C1278       C  0.00105000  0.66008040  0.42661894     0.84300
O1279       O  0.00892233  0.67124009  0.47528894    -0.66300
Ni1280     Ni  0.97654711  0.75642453  0.61599020     1.27400
Ni1281     Ni  0.50715474  0.79137674  0.49256125     1.26100
H1282       H  0.55372074  0.76315728  0.47125821     0.38900
N1283       N  0.49930388  0.62093882  0.41007622    -0.03700
C1284       C  0.96500803  0.58660211  0.39298913    -0.01100
C1285       C  0.97552619  0.55506759  0.37999229    -0.24000
C1286       C  0.51829019  0.57226980  0.38596726    -0.24200
C1287       C  0.53280585  0.61390577  0.40264047    -0.01200
H1288       H  0.95623336  0.52605515  0.35824710     0.12600
H1289       H  0.53703900  0.55904837  0.36697451     0.12600
C1290       C  0.77808097  0.93187911  0.35990605     0.80000
N1291       N  0.80754496  0.92286496  0.38091649    -0.78300
C1292       C  0.82516903  0.90309811  0.35038545     0.82500
N1293       N  0.81311964  0.89219890  0.29890129    -0.78200
C1294       C  0.78503110  0.90203403  0.27629513     0.82600
N1295       N  0.76752125  0.92223845  0.30694873    -0.80000
C1296       C  0.86569615  0.58726897  0.36275886     0.80000
N1297       N  0.86665043  0.58534875  0.30788069    -0.78300
C1298       C  0.90169011  0.58808645  0.28163817     0.82500
N1299       N  0.93359639  0.58924161  0.31002142    -0.78200
C1300       C  0.93224012  0.59013270  0.36415730     0.82600
N1301       N  0.89978920  0.59200752  0.39029828    -0.80000
N1302       N  0.85900519  0.86427645  0.39087063    -0.03700
C1303       C  0.89417737  0.86085705  0.37794260    -0.01100
C1304       C  0.92152819  0.89656184  0.35032266    -0.24000
C1305       C  0.90109433  0.92049621  0.34390036    -0.24200
C1306       C  0.86197375  0.89930161  0.36847425    -0.01200
H1307       H  0.94985840  0.90099606  0.32865934     0.12600
H1308       H  0.91123866  0.94691781  0.31741342     0.12600
C1309       C  0.92282315  0.77387748  0.36857893     0.80000
N1310       N  0.91243242  0.80306176  0.39163418    -0.78300
C1311       C  0.89267189  0.81986985  0.36270817     0.82500
N1312       N  0.88334995  0.80709758  0.31095958    -0.78200
C1313       C  0.89783075  0.78240697  0.28531880     0.82600
N1314       N  0.91732984  0.76526977  0.31445383    -0.80000
C1315       C  0.57124201  0.87430204  0.36245689     0.80000
N1316       N  0.57534271  0.87130345  0.30813903    -0.78300
C1317       C  0.58569771  0.90530780  0.27700124     0.82500
N1318       N  0.59326190  0.94302952  0.30000883    -0.78200
C1319       C  0.59023566  0.94698035  0.35388327     0.82600
N1320       N  0.57837815  0.91210870  0.38483050    -0.80000
N1321       N  0.60671652  0.98819963  0.37956919    -0.03700
C1322       C  0.60011951  0.52149342  0.36893292    -0.01100
C1323       C  0.58848470  0.53352829  0.41818890    -0.24000
C1324       C  0.60071366  0.51623320  0.45822914    -0.24200
C1325       C  0.61449998  0.99071405  0.43178930    -0.01200
H1326       H  0.58619914  0.56226574  0.42541642     0.12600
H1327       H  0.60729544  0.52810814  0.49927567     0.12600
C1328       C  0.63722809  0.70585849  0.37524007     0.80000
N1329       N  0.63546162  0.70633065  0.32001865    -0.78300
C1330       C  0.60079087  0.67699143  0.29353078     0.82500
N1331       N  0.56940059  0.64694601  0.32206492    -0.78200
C1332       C  0.57052255  0.64594719  0.37605638     0.82600
N1333       N  0.60363769  0.67618429  0.40304990    -0.80000
C1334       C  0.69656283  0.62495143  0.35453505     0.80000
N1335       N  0.66398815  0.59014859  0.37524115    -0.78300
C1336       C  0.63588320  0.55878190  0.34299302     0.82500
N1337       N  0.64162769  0.56226531  0.28879763    -0.78200
C1338       C  0.67425656  0.59726445  0.26695686     0.82600
N1339       N  0.70148522  0.62844019  0.29998920    -0.80000
C1340       C  0.77349464  0.92295912  0.13349008     0.80000
N1341       N  0.80308734  0.91312286  0.11066469    -0.78300
C1342       C  0.82017680  0.89371015  0.13970359     0.82500
N1343       N  0.80742499  0.88427290  0.19137567    -0.78200
C1344       C  0.78224841  0.89820250  0.21682099     0.82600
N1345       N  0.76481556  0.91738251  0.18757731    -0.80000
C1346       C  0.87365731  0.57017698  0.13791004     0.80000
N1347       N  0.87098673  0.57543173  0.19200137    -0.78300
C1348       C  0.90503946  0.58621265  0.22311871     0.82500
N1349       N  0.94257854  0.59312846  0.20026279    -0.78200
C1350       C  0.94626991  0.58898207  0.14651628     0.82600
N1351       N  0.91120267  0.57646240  0.11565136    -0.80000
N1352       N  0.86419504  0.85977823  0.11185188    -0.03700
C1353       C  0.86100338  0.89514387  0.12435478    -0.01100
C1354       C  0.89682595  0.92268699  0.15170983    -0.24000
C1355       C  0.92063365  0.90217397  0.15845657    -0.24200
C1356       C  0.89923610  0.86286508  0.13424983    -0.01200
H1357       H  0.90143451  0.95125218  0.17302816     0.12600
H1358       H  0.94716540  0.91247482  0.18482220     0.12600
C1359       C  0.93122046  0.77859925  0.14191686     0.80000
N1360       N  0.92185567  0.76799251  0.19488550    -0.78300
C1361       C  0.90203103  0.78571690  0.22591363     0.82500
N1362       N  0.89251417  0.81417171  0.20374082    -0.78200
C1363       C  0.90313462  0.82616693  0.15225488     0.82600
N1364       N  0.92235345  0.80825376  0.12130331    -0.80000
C1365       C  0.58518179  0.86571169  0.13709320     0.80000
N1366       N  0.58367799  0.86675871  0.19195061    -0.78300
C1367       C  0.58645358  0.90175786  0.21838538     0.82500
N1368       N  0.58734542  0.93365295  0.19018072    -0.78200
C1369       C  0.58787230  0.93223287  0.13599764     0.82600
N1370       N  0.58942600  0.89964056  0.10961159    -0.80000
N1371       N  0.62027678  0.49976922  0.09129500    -0.03700
C1372       C  0.58538977  0.96565612  0.10738264    -0.01100
C1373       C  0.55426196  0.97685294  0.11982109    -0.24000
C1374       C  0.57219888  0.51975135  0.11427206    -0.24200
C1375       C  0.61381620  0.53364057  0.09837009    -0.01200
H1376       H  0.52489185  0.95779334  0.14085423     0.12600
H1377       H  0.55928875  0.53891324  0.13287042     0.12600
C1378       C  0.62401457  0.69764829  0.14697985     0.80000
N1379       N  0.58956143  0.66485739  0.12573126    -0.78300
C1380       C  0.55829045  0.63618939  0.15743782     0.82500
N1381       N  0.56171187  0.64141176  0.21178695    -0.78200
C1382       C  0.59643527  0.67423851  0.23415558     0.82600
N1383       N  0.62732076  0.70214180  0.20155459    -0.80000
C1384       C  0.70505972  0.63837642  0.12622125     0.80000
N1385       N  0.70581738  0.63657485  0.18137872    -0.78300
C1386       C  0.67724999  0.60146589  0.20764450     0.82500
N1387       N  0.64772108  0.56960002  0.17896476    -0.78200
C1388       C  0.64607248  0.57110092  0.12512298     0.82600
N1389       N  0.67549187  0.60473349  0.09830046    -0.80000
N1390       N  0.98741281  0.60619803  0.12061896    -0.03700
C1391       C  0.52127978  0.60035548  0.13067077    -0.01100
C1392       C  0.53354424  0.58966908  0.08089813    -0.24000
C1393       C  0.51553194  0.60164263  0.04141939    -0.24200
C1394       C  0.98943640  0.61432663  0.06854623    -0.01200
H1395       H  0.56251984  0.58797073  0.07321229     0.12600
H1396       H  0.52708837  0.60871241  0.00034467     0.12600
O1397       O  0.70779831  0.68453429  0.60545593    -0.81100
O1398       O  0.82786459  0.82783605  0.46894620    -0.65800
O1399       O  0.72927701  0.75282543  0.54314558    -1.12400
C1400       C  0.71884199  0.66269604  0.38966613     1.05800
O1401       O  0.78873967  0.81329992  0.39683248    -0.79000
O1402       O  0.71175329  0.74440019  0.37344425    -0.66600
Ni1403     Ni  0.72831836  0.74362764  0.61824892     1.34900
C1404       C  0.67863303  0.72620018  0.40239661     0.84500
O1405       O  0.79100404  0.83569124  0.56380922    -0.79500
O1406       O  0.74871406  0.80240441  0.63476237    -0.89800
C1407       C  0.82370345  0.83412876  0.42004234     0.84100
O1408       O  0.78480179  0.75330543  0.62880070    -0.68000
O1409       O  0.74795833  0.69539674  0.36764916    -0.87300
C1410       C  0.81793915  0.77150468  0.59988558     0.84900
C1411       C  0.77780773  0.83511236  0.61275086     1.06500
H1412       H  0.78767181  0.73488667  0.46416783     0.38300
O1413       O  0.76743123  0.74501922  0.45916200    -1.10000
O1414       O  0.67967635  0.72036281  0.45263427    -0.66600
Ni1415     Ni  0.71692519  0.70658062  0.49249028     1.26300
O1416       O  0.81698504  0.77744153  0.54966442    -0.66800
O1417       O  0.70568474  0.66211497  0.43861187    -0.79100
C1418       C  0.67281769  0.66380393  0.58226044     0.84300
O1419       O  0.66876209  0.67004730  0.53331461    -0.66300
Ni1420     Ni  0.76828997  0.75418895  0.38406890     1.27400
Ni1421     Ni  0.77977010  0.79125980  0.50983700     1.26100
H1422       H  0.70905238  0.76297084  0.53809924     0.38900
C1423       C  0.79995797  0.87293811  0.64781271     0.80000
N1424       N  0.79528028  0.86958482  0.70240638    -0.78300
C1425       C  0.82245396  0.90102604  0.73522063     0.82500
N1426       N  0.85472826  0.93615904  0.71308810    -0.78200
C1427       C  0.86019403  0.93950677  0.65883897     0.82600
N1428       N  0.83219266  0.90785505  0.62685922    -0.80000
C1429       C  0.85927198  0.79175439  0.62709078     0.80000
N1430       N  0.86094841  0.79135889  0.68231901    -0.78300
C1431       C  0.89574631  0.82047701  0.70876749     0.81900
N1432       N  0.92735166  0.85027687  0.68020303    -0.78200
C1433       C  0.92614072  0.85138919  0.62625236     0.82600
N1434       N  0.89290645  0.82134175  0.59927831    -0.80000
N1435       N  0.88948598  0.51027249  0.62239318    -0.03700
C1436       C  0.89579347  0.97670445  0.63252828    -0.01100
C1437       C  0.90710558  0.96464631  0.58305225    -0.24000
C1438       C  0.89527122  0.98248774  0.54326817    -0.24200
C1439       C  0.88214997  0.50838245  0.57005806    -0.01200
H1440       H  0.90924416  0.93585337  0.57554954     0.12600
H1441       H  0.88896122  0.97122109  0.50195923     0.12600
C1442       C  0.92631421  0.62429306  0.63973760     0.80000
N1443       N  0.92134537  0.62717130  0.69390401    -0.78300
C1444       C  0.91014081  0.59300583  0.72502091     0.82500
N1445       N  0.90263236  0.55525722  0.70209470    -0.78200
C1446       C  0.90666711  0.55146144  0.64835131     0.82600
N1447       N  0.91951204  0.58654844  0.61751827    -0.80000
C1448       C  0.57421587  0.72451349  0.63410317     0.80000
N1449       N  0.57973668  0.73295164  0.68823948    -0.78300
C1450       C  0.59935975  0.71579899  0.71710204     0.82500
N1451       N  0.61382973  0.69120845  0.69122401    -0.78200
C1452       C  0.60424378  0.67843577  0.63953569     0.82600
N1453       N  0.58448498  0.69532982  0.61083623    -0.80000
N1454       N  0.63741930  0.63378451  0.61147701    -0.03700
C1455       C  0.60232087  0.63732959  0.62433378    -0.01100
C1456       C  0.57516669  0.60203910  0.65286417    -0.24000
C1457       C  0.59586543  0.57854294  0.66047868    -0.24200
C1458       C  0.63479704  0.59949264  0.63544726    -0.01200
H1459       H  0.54697214  0.59792104  0.67461435     0.12600
H1460       H  0.58603479  0.55271279  0.68788796     0.12600
C1461       C  0.72076986  0.57001513  0.64224117     0.80000
N1462       N  0.69062978  0.57826381  0.62195941    -0.78300
C1463       C  0.67183806  0.59628714  0.65344835     0.82500
N1464       N  0.68381028  0.60687029  0.70500204    -0.78200
C1465       C  0.71292058  0.59810462  0.72677070     0.82600
N1466       N  0.73125296  0.57911239  0.69530072    -0.80000
C1467       C  0.63284453  0.91550946  0.63733828     0.80000
N1468       N  0.59891024  0.91121448  0.60981404    -0.78300
C1469       C  0.56519702  0.91010269  0.63628065     0.82500
N1470       N  0.56297781  0.90852011  0.69034527    -0.78200
C1471       C  0.59523075  0.91024231  0.71855428     0.82600
N1472       N  0.63115108  0.91535532  0.69223691    -0.80000
N1473       N  0.99745877  0.87743622  0.59223083    -0.03700
C1474       C  0.96355499  0.88376907  0.59964060    -0.01100
C1475       C  0.97740417  0.92543201  0.61565026    -0.24000
C1476       C  0.52033895  0.94353641  0.62080792    -0.24200
C1477       C  0.53159674  0.91247316  0.60800825    -0.01200
H1478       H  0.95827232  0.93831213  0.63440193     0.12600
H1479       H  0.53945548  0.97299389  0.64178289     0.12600
N1480       N  0.50916239  0.89084933  0.88026910    -0.03700
C1481       C  0.97564149  0.89742049  0.87082317    -0.01100
C1482       C  0.96406957  0.90869509  0.92067252    -0.24000
C1483       C  0.98206553  0.89655051  0.95994339    -0.24200
C1484       C  0.50755458  0.88325508  0.93250852    -0.01200
H1485       H  0.93550227  0.91112574  0.92866993     0.12600
H1486       H  0.97107829  0.89011395  0.00130699     0.12600
C1487       C  0.72363595  0.57490433  0.86855697     0.80000
N1488       N  0.69437776  0.58506710  0.89175438    -0.78300
C1489       C  0.67819524  0.60575124  0.86351533     0.82500
N1490       N  0.69167800  0.61623536  0.81225381    -0.78200
C1491       C  0.71623100  0.60179089  0.78618650     0.82600
N1492       N  0.73277029  0.58138353  0.81469070    -0.80000
C1493       C  0.62280035  0.92648477  0.86249675     0.80000
N1494       N  0.58532968  0.92031177  0.88476656    -0.78300
C1495       C  0.55022404  0.90781995  0.85403968     0.82500
N1496       N  0.55384983  0.90369672  0.80021127    -0.78200
C1497       C  0.59148544  0.91090420  0.77721362     0.82600
N1498       N  0.62551515  0.92151676  0.80834689    -0.80000
C1499       C  0.79169929  0.86063314  0.87632026     0.80000
N1500       N  0.79080553  0.86228127  0.82116442    -0.78300
C1501       C  0.82012677  0.89675773  0.79453735     0.82500
N1502       N  0.85063398  0.92802590  0.82283944    -0.78200
C1503       C  0.85218062  0.92689400  0.87675274     0.82600
N1504       N  0.82186041  0.89406259  0.90393156    -0.80000
C1505       C  0.87194579  0.80119836  0.85546874     0.80000
N1506       N  0.90651459  0.83399429  0.87647985    -0.78300
C1507       C  0.93811930  0.86199466  0.84451577     0.82500
N1508       N  0.93486185  0.85616206  0.79025970    -0.78200
C1509       C  0.89992956  0.82350667  0.76812741     0.82600
N1510       N  0.86872390  0.79620513  0.80091117    -0.80000
N1511       N  0.87632860  0.99822516  0.90987119    -0.03700
C1512       C  0.91081640  0.53288813  0.89425833    -0.01100
C1513       C  0.94268381  0.52269554  0.88211961    -0.24000
C1514       C  0.92567905  0.97983663  0.88768107    -0.24200
C1515       C  0.88384091  0.96497056  0.90321140    -0.01200
H1516       H  0.97205858  0.54237887  0.86148348     0.12600
H1517       H  0.93947312  0.96126195  0.86966271     0.12600
C1518       C  0.91138250  0.63303010  0.86495987     0.80000
N1519       N  0.90707120  0.59905448  0.89240013    -0.78300
C1520       C  0.90757810  0.56600639  0.86591368     0.82500
N1521       N  0.90729531  0.56429355  0.81178533    -0.78200
C1522       C  0.90870341  0.59642295  0.78361820     0.82600
N1523       N  0.91236624  0.63179045  0.81006514    -0.80000
C1524       C  0.56595013  0.71932971  0.86034852     0.80000
N1525       N  0.57442128  0.68936623  0.88084248    -0.78300
C1526       C  0.59327520  0.67116874  0.84971699     0.82500
N1527       N  0.60409996  0.68331710  0.79832517    -0.78200
C1528       C  0.59507018  0.71218587  0.77639444     0.82600
N1529       N  0.57553685  0.73012211  0.80750916    -0.80000
N1530       N  0.63286739  0.63856112  0.89059729    -0.03700
C1531       C  0.63692772  0.60364453  0.87811573    -0.01100
C1532       C  0.60152271  0.57570733  0.85034029    -0.24000
C1533       C  0.57707092  0.59551381  0.84340597    -0.24200
C1534       C  0.59767297  0.63480279  0.86790201    -0.01200
H1535       H  0.59761021  0.54740260  0.82893780     0.12600
H1536       H  0.55068086  0.58484345  0.81672753     0.12600
loop_ 
_geom_bond_atom_site_label_1 
_geom_bond_atom_site_label_2 
_geom_bond_distance 
_geom_bond_site_symmetry_2 
_ccdc_geom_bond_type 
O1           C22   1.277       .  A
O1         Ni391   1.948       .  S
O2          C395   1.259       .  A
O2         Ni409   1.876   1_556  S
O3           Ni7   1.918       .  S
O3          Ni25   1.891       .  S
O3         Ni403   1.925   1_544  S
O3           H26   0.966       .  S
C4           O21   1.281       .  A
C4           O13   1.279       .  A
C4          C341   1.492       .  S
O5           C11   1.277   1_545  A
O5         Ni408   1.947   1_545  S
O6            C8   1.273       .  A
O6         Ni408   1.924   1_545  S
Ni7          O10   1.937       .  S
Ni7         O385   1.948   1_545  S
Ni7         O396   1.921   1_545  S
C8           O18   1.271       .  A
C8          C335   1.485       .  S
O9           C15   1.281       .  A
O9          Ni25   1.941       .  S
O10          C15   1.280       .  A
C11         O386   1.259       .  A
C11         N743   1.424       .  S
O12          C14   1.272       .  A
O12        Ni391   1.921       .  S
O13         Ni24   1.935       .  S
C14          O20   1.272       .  A
C14         C188   1.484       .  S
C15         C194   1.492       .  S
H16          O17   0.966       .  S
O17         Ni19   1.891       .  S
O17         Ni24   1.920       .  S
O17        Ni409   1.924   1_556  S
O18        Ni403   1.923   1_545  S
Ni19         O21   1.942       .  S
Ni19        O402   1.923       .  S
Ni19        O407   1.877   1_556  S
Ni19        O387   1.925   1_556  S
O20        Ni409   1.924       .  S
C22         O407   1.259       .  A
C22         N603   1.425       .  S
O23         C406   1.259       .  A
O23        Ni403   1.877   1_544  S
Ni24        O389   1.947       .  S
Ni24        O390   1.924       .  S
Ni25        O386   1.876   1_544  S
Ni25        O404   1.924   1_545  S
Ni25        O401   1.924   1_544  S
O27          C48   1.270       .  A
O27         Ni33   1.915       .  S
O28          C37   1.270       .  A
O28         Ni51   1.898   1_554  S
O29         Ni33   1.906       .  S
O29         Ni51   1.881       .  S
O29         Ni45   1.936   1_556  S
O29          H52   0.966       .  S
C30          O47   1.287       .  A
C30          O39   1.279       .  A
C30         C226   1.482       .  S
O31          C37   1.270       .  A
O31         Ni50   1.917       .  S
O32          C34   1.270       .  A
O32         Ni50   1.916       .  S
Ni33         O36   1.921       .  S
Ni33         O38   1.918       .  S
C34          O44   1.278       .  A
C34         C232   1.487       .  S
O35          C41   1.288       .  A
O35         Ni51   1.946       .  S
O36          C41   1.279       .  A
C37         N200   1.422       .  S
O38          C40   1.271       .  A
O39         Ni50   1.922       .  S
C40          O46   1.278       .  A
C40         C347   1.488       .  S
C41         C353   1.482       .  S
H42          O43   0.966       .  S
O43         Ni51   1.935   1_554  S
O43         Ni45   1.881       .  S
O43         Ni50   1.906       .  S
O44         Ni45   1.936       .  S
Ni45         O49   1.898   1_554  S
Ni45         O47   1.945       .  S
O46         Ni51   1.936       .  S
C48          O49   1.269       .  A
C48         N378   1.422       .  S
O53          C74   1.273       .  A
O53        Ni443   1.927   1_545  S
O54          C63   1.247       .  A
O54         Ni77   1.862       .  S
O55         Ni59   1.924       .  S
O55         Ni77   1.871       .  S
O55        Ni455   1.909       .  S
O55          H78   0.966       .  S
C56          O73   1.266       .  A
C56          O65   1.280       .  A
C56         C144   1.462       .  S
O57          C63   1.275       .  A
O57        Ni460   1.931       .  S
O58          C60   1.266       .  A
O58        Ni460   1.915       .  S
Ni59         O62   1.952       .  S
Ni59        O437   1.927       .  S
Ni59        O448   1.911       .  S
C60          O70   1.266       .  A
C60         C138   1.478       .  S
O61          C67   1.266       .  A
O61         Ni77   1.872       .  S
O62          C67   1.280       .  A
C63         C173   1.444       .  S
O64          C66   1.264       .  A
O64        Ni443   1.911   1_545  S
O65         Ni76   1.950       .  S
C66          O72   1.267       .  A
C66         C309   1.475       .  S
C67         C315   1.464       .  S
H68          O69   0.967       .  S
O69         Ni71   1.873       .  S
O69         Ni76   1.924       .  S
O69        Ni461   1.906   1_545  S
O70        Ni455   1.920       .  S
Ni71         O75   1.865       .  S
Ni71         O73   1.872       .  S
Ni71        O454   1.920   1_545  S
Ni71        O439   1.909   1_545  S
O72        Ni461   1.920   1_545  S
C74          O75   1.247       .  A
C74         C287   1.444       .  S
Ni76        O441   1.931   1_545  S
Ni76        O442   1.915   1_545  S
Ni77        O456   1.920       .  S
Ni77        O453   1.906       .  S
O79         C100   1.273       .  A
O79        Ni853   1.926   1_455  S
O80          C89   1.248       .  A
O80        Ni103   1.866   1_554  S
O81         Ni85   1.926       .  S
O81        Ni103   1.874       .  S
O81        Ni865   1.907   1_556  S
O81         H104   0.968       .  S
C82          O99   1.264       .  A
C82          O91   1.278       .  A
C82         C213   1.460       .  S
O83          C89   1.274       .  A
O83        Ni870   1.927       .  S
O84          C86   1.265       .  A
O84        Ni870   1.912       .  S
Ni85         O88   1.949       .  S
Ni85        O847   1.926       .  S
Ni85        O858   1.911       .  S
C86          O96   1.268       .  A
C86         C207   1.476       .  S
O87          C93   1.265       .  A
O87        Ni103   1.873       .  S
O88          C93   1.279       .  A
C89         C242   1.446       .  S
O90          C92   1.265       .  A
O90        Ni853   1.911   1_455  S
O91        Ni102   1.949       .  S
C92          O98   1.266       .  A
C92         C372   1.474       .  S
C93         C366   1.462       .  S
H94          O95   0.965       .  S
O95         Ni97   1.875       .  S
O95        Ni102   1.925       .  S
O95        Ni871   1.907   1_454  S
O96        Ni865   1.923       .  S
Ni97        O101   1.866   1_554  S
Ni97         O99   1.873       .  S
Ni97        O864   1.923   1_455  S
Ni97        O849   1.907   1_454  S
O98        Ni871   1.920   1_455  S
C100        O101   1.247       .  A
C100        C332   1.444       .  S
Ni102       O851   1.927   1_455  S
Ni102       O852   1.912   1_455  S
Ni103       O866   1.920       .  S
Ni103       O863   1.907   1_556  S
O105        C126   1.277       .  A
O105       Ni879   1.944       .  S
O106        C115   1.260       .  A
O106       Ni129   1.879   1_655  S
O107       Ni111   1.919       .  S
O107       Ni129   1.891       .  S
O107       Ni891   1.927   1_455  S
O107        H130   0.966       .  S
C108        O125   1.282       .  A
C108        O117   1.279       .  A
C108        C290   1.493       .  S
O109        C115   1.277   1_455  A
O109       Ni896   1.946   1_455  S
O110        C112   1.273       .  A
O110       Ni896   1.922   1_455  S
Ni111       O114   1.936       .  S
Ni111       O873   1.944   1_455  S
Ni111       O884   1.922   1_455  S
C112        O122   1.272       .  A
C112        C296   1.482       .  S
O113        C119   1.283       .  A
O113       Ni129   1.946       .  S
O114        C119   1.279       .  A
C115       N1089   1.425       .  S
O116        C118   1.273       .  A
O116       Ni879   1.922       .  S
O117       Ni128   1.935       .  S
C118        O124   1.272       .  A
C118        C157   1.484       .  S
C119        C163   1.494       .  S
H120        O121   0.966       .  S
O121       Ni123   1.892       .  S
O121       Ni128   1.919       .  S
O121       Ni897   1.928       .  S
O122       Ni891   1.921   1_455  S
Ni123       O127   1.881       .  S
Ni123       O125   1.945       .  S
Ni123       O890   1.921       .  S
Ni123       O875   1.927       .  S
O124       Ni897   1.923       .  S
C126        O127   1.261       .  A
C126        N899   1.425       .  S
Ni128       O877   1.946       .  S
Ni128       O878   1.922       .  S
Ni129       O892   1.923   1_455  S
Ni129       O889   1.928   1_455  S
N131        C894   1.425   1_655  S
N131        C135   1.348   1_655  A
N131        C900   1.343       .  A
C132        C148   1.456       .  S
C132        N899   1.343       .  A
C132        C133   1.378       .  A
C133        C902   1.375       .  A
C133        H136   1.083       .  S
C134        C135   1.388       .  A
C134        C901   1.375   1_455  A
C134        H137   1.080       .  S
C135        C180   1.463       .  S
C138        N139   1.367       .  A
C138        N143   1.370       .  A
N139        C140   1.355       .  A
C140        C154   1.478       .  S
C140        N141   1.351       .  A
N141        C142   1.358       .  A
C142        C192   1.483       .  S
C142        N143   1.365       .  A
C144        N145   1.364       .  A
C144        N149   1.361       .  A
N145        C146   1.363       .  A
C146        C196   1.458       .  S
C146        N147   1.350       .  A
N147        C148   1.346       .  A
C148        N149   1.346       .  A
N150        C255   1.422       .  S
N150        C154   1.350       .  A
N150        C151   1.354       .  A
C151        C159   1.485       .  S
C151        C152   1.387       .  A
C152        C153   1.382       .  A
C152        H155   1.083       .  S
C153        C154   1.382       .  A
C153        H156   1.082       .  S
C157        N158   1.371       .  A
C157        N162   1.371       .  A
N158        C159   1.360       .  A
C159        N160   1.351       .  A
N160        C161   1.355       .  A
C161        C209   1.483       .  S
C161        N162   1.364       .  A
C163        N164   1.360       .  A
C163        N168   1.362       .  A
N164        C165   1.361       .  A
C165        C215   1.460       .  S
C165        N166   1.361       .  A
N166        C167   1.349       .  A
C167        N169   1.447       .  S
C167        N168   1.375       .  A
N169        C173   1.329       .  A
N169        C554   1.359       .  A
C170        C184   1.504       .  S
C170        N553   1.359   1_545  A
C170        C171   1.401       .  A
C171        C172   1.377       .  A
C171        H174   1.082       .  S
C172        C557   1.372   1_545  A
C172        H175   1.083       .  S
C173        C556   1.372       .  A
C176        C252   1.491       .  S
C176        N177   1.378       .  A
C176        N181   1.367       .  A
N177        C178   1.371       .  A
C178        C230   1.485       .  S
C178        N179   1.344       .  A
N179        C180   1.347       .  A
C180        N181   1.358       .  A
C182        C248   1.482       .  S
C182        N183   1.356       .  A
C182        N187   1.365       .  A
N183        C184   1.365       .  A
C184        N185   1.358       .  A
N185        C186   1.372       .  A
C186        C234   1.483       .  S
C186        N187   1.362       .  A
C188        N189   1.370       .  A
C188        N193   1.371       .  A
N189        C190   1.359       .  A
C190        C201   1.483       .  S
C190        N191   1.350       .  A
N191        C192   1.355       .  A
C192        N193   1.365       .  A
C194        N195   1.359       .  A
C194        N199   1.362       .  A
N195        C196   1.359       .  A
C196        N197   1.362       .  A
N197        C198   1.349       .  A
C198        N238   1.448       .  S
C198        N199   1.375       .  A
N200        C204   1.349       .  A
N200        C201   1.353       .  A
C201        C202   1.387       .  A
C202        C203   1.382       .  A
C202        H205   1.083       .  S
C203        C204   1.381       .  A
C203        H206   1.082       .  S
C204        C211   1.475       .  S
C207        N208   1.371       .  A
C207        N212   1.365       .  A
N208        C209   1.365       .  A
C209        N210   1.358       .  A
N210        C211   1.350       .  A
C211        N212   1.353       .  A
C213        N214   1.364       .  A
C213        N218   1.361       .  A
N214        C215   1.362       .  A
C215        N216   1.351       .  A
N216        C217   1.347       .  A
C217        C220   1.455       .  S
C217        N218   1.346       .  A
N219        C406   1.425   1_565  S
N219        C223   1.346   1_565  A
N219        C604   1.343       .  A
C220        N603   1.343       .  A
C220        C221   1.378       .  A
C221        C606   1.376       .  A
C221        H224   1.083       .  S
C222        C223   1.387       .  A
C222        C605   1.376   1_545  A
C222        H225   1.080       .  S
C223        C236   1.460       .  S
C226        N227   1.357       .  A
C226        N231   1.364       .  A
N227        C228   1.365       .  A
C228        C239   1.508       .  S
C228        N229   1.360       .  A
N229        C230   1.374       .  A
C230        N231   1.362       .  A
C232        N233   1.377       .  A
C232        N237   1.366       .  A
N233        C234   1.370       .  A
C234        N235   1.344       .  A
N235        C236   1.346       .  A
C236        N237   1.357       .  A
N238        C242   1.329       .  A
N238       C1007   1.361       .  A
C239       N1006   1.361   1_455  A
C239        C240   1.402       .  A
C240        C241   1.378       .  A
C240        H243   1.082       .  S
C241       C1010   1.372   1_455  A
C241        H244   1.083       .  S
C242       C1009   1.372       .  A
O245        C266   1.270       .  A
O245       Ni251   1.914       .  S
O246        C255   1.271       .  A
O246       Ni269   1.900       .  S
O247       Ni251   1.904       .  S
O247       Ni269   1.879       .  S
O247       Ni263   1.937       .  S
O247        H270   0.966       .  S
C248        O265   1.289       .  A
C248        O257   1.279       .  A
O249        C255   1.270       .  A
O249       Ni268   1.914       .  S
O250        C252   1.271       .  A
O250       Ni268   1.920       .  S
Ni251       O254   1.919       .  S
Ni251       O256   1.919       .  S
C252        O262   1.278       .  A
O253        C259   1.289       .  A
O253       Ni269   1.950       .  S
O254        C259   1.279       .  A
O256        C258   1.271       .  A
O257       Ni268   1.919       .  S
C258        O264   1.278       .  A
C258        C277   1.490       .  S
C259        C271   1.482       .  S
H260        O261   0.966       .  S
O261       Ni269   1.937       .  S
O261       Ni263   1.880       .  S
O261       Ni268   1.904       .  S
O262       Ni263   1.939       .  S
Ni263       O267   1.900       .  S
Ni263       O265   1.949       .  S
O264       Ni269   1.938       .  S
C266        O267   1.270       .  A
C266        N302   1.423       .  S
C271        N272   1.365       .  A
C271        N276   1.356       .  A
N272        C273   1.363       .  A
C273        C349   1.484       .  S
C273        N274   1.372       .  A
N274        C275   1.358       .  A
C275        C284   1.504       .  S
C275        N276   1.365       .  A
C277        N278   1.378       .  A
C277        N282   1.367       .  A
N278        C279   1.371       .  A
C279        C357   1.484       .  S
C279        N280   1.344       .  A
N280        C281   1.346       .  A
C281        C322   1.462       .  S
C281        N282   1.358       .  A
N283        C294   1.448       .  S
N283        C287   1.330       .  A
N283        C668   1.360   1_545  A
C284        N667   1.360       .  A
C284        C285   1.401       .  A
C285        C286   1.377       .  A
C285        H288   1.082       .  S
C286        C671   1.371       .  A
C286        H289   1.083       .  S
C287        C670   1.371   1_545  A
C290        N291   1.360       .  A
C290        N295   1.361       .  A
N291        C292   1.360       .  A
C292        C370   1.460       .  S
C292        N293   1.362       .  A
N293        C294   1.349       .  A
C294        N295   1.375       .  A
C296        N297   1.370       .  A
C296        N301   1.370       .  A
N297        C298   1.364       .  A
C298        C376   1.481       .  S
C298        N299   1.355       .  A
N299        C300   1.350       .  A
C300        C303   1.483       .  S
C300        N301   1.359       .  A
N302        C306   1.349       .  A
N302        C303   1.354       .  A
C303        C304   1.388       .  A
C304        C305   1.381       .  A
C304        H307   1.083       .  S
C305        C306   1.381       .  A
C305        H308   1.083       .  S
C306        C311   1.474       .  S
C309        N310   1.364       .  A
C309        N314   1.371       .  A
N310        C311   1.353       .  A
C311        N312   1.351       .  A
N312        C313   1.358       .  A
C313        C339   1.483       .  S
C313        N314   1.365       .  A
C315        N316   1.361       .  A
C315        N320   1.365       .  A
N316        C317   1.345       .  A
C317        C325   1.455       .  S
C317        N318   1.346       .  A
N318        C319   1.350       .  A
C319        C345   1.461       .  S
C319        N320   1.365       .  A
N321        C883   1.425       .  S
N321        C322   1.347       .  A
N321       C1093   1.342       .  A
C322        C323   1.387       .  A
C323       C1092   1.376       .  A
C323        H326   1.080       .  S
C324        C325   1.379       .  A
C324       C1091   1.376   1_455  A
C324        H327   1.083       .  S
C325       N1089   1.342   1_455  A
N328        C343   1.450       .  S
N328        C332   1.330       .  A
N328       C1097   1.361   1_455  A
C329        C355   1.506       .  S
C329       N1096   1.361       .  A
C329        C330   1.402       .  A
C330        C331   1.377       .  A
C330        H333   1.083       .  S
C331       C1100   1.371       .  A
C331        H334   1.083   1_556  S
C332       C1099   1.371   1_455  A
C335        N336   1.371       .  A
C335        N340   1.370       .  A
N336        C337   1.360       .  A
C337        C379   1.484       .  S
C337        N338   1.351       .  A
N338        C339   1.355       .  A
C339        N340   1.365       .  A
C341        N342   1.361       .  A
C341        N346   1.359       .  A
N342        C343   1.375       .  A
C343        N344   1.351       .  A
N344        C345   1.363       .  A
C345        N346   1.360       .  A
C347        N348   1.377       .  A
C347        N352   1.367       .  A
N348        C349   1.370       .  A
C349        N350   1.345       .  A
N350        C351   1.347       .  A
C351        C363   1.461       .  S
C351        N352   1.358       .  A
C353        N354   1.357       .  A
C353        N358   1.364       .  A
N354        C355   1.366       .  A
C355        N356   1.359       .  A
N356        C357   1.373       .  A
C357        N358   1.362       .  A
N359        C395   1.424       .  S
N359        C363   1.346       .  A
N359        C744   1.342       .  A
C360        C368   1.455       .  S
C360        N743   1.342   1_545  A
C360        C361   1.378       .  A
C361        C746   1.377   1_545  A
C361        H364   1.083       .  S
C362        C363   1.387       .  A
C362        C745   1.377       .  A
C362        H365   1.080       .  S
C366        N367   1.361       .  A
C366        N371   1.364       .  A
N367        C368   1.346       .  A
C368        N369   1.346       .  A
N369        C370   1.350       .  A
C370        N371   1.363       .  A
C372        N373   1.365       .  A
C372        N377   1.370       .  A
N373        C374   1.354       .  A
C374        C382   1.474       .  S
C374        N375   1.350       .  A
N375        C376   1.357       .  A
C376        N377   1.364       .  A
N378        C382   1.349       .  A
N378        C379   1.354       .  A
C379        C380   1.387       .  A
C380        C381   1.382       .  A
C380        H383   1.083       .  S
C381        C382   1.382       .  A
C381        H384   1.083       .  S
O385        C406   1.277   1_565  A
O387       Ni391   1.918       .  S
O387       Ni409   1.891       .  S
O387        H410   0.966       .  S
C388        O405   1.281       .  A
C388        O397   1.279       .  A
C388        C725   1.492       .  S
O389        C395   1.277       .  A
O390        C392   1.273       .  A
Ni391       O394   1.937       .  S
C392        O402   1.271       .  A
C392        C719   1.485       .  S
O393        C399   1.281       .  A
O393       Ni409   1.941       .  S
O394        C399   1.280       .  A
O396        C398   1.272       .  A
O397       Ni408   1.935       .  S
C398        O404   1.272       .  A
C398        C572   1.484       .  S
C399        C578   1.492       .  S
H400        O401   0.966       .  S
O401       Ni403   1.891       .  S
O401       Ni408   1.920       .  S
Ni403       O405   1.942       .  S
O411        C432   1.270       .  A
O411       Ni417   1.915       .  S
O412        C421   1.270       .  A
O412       Ni435   1.898   1_554  S
O413       Ni417   1.906       .  S
O413       Ni435   1.881       .  S
O413       Ni429   1.936   1_556  S
O413        H436   0.966       .  S
C414        O431   1.287       .  A
C414        O423   1.279       .  A
C414        C610   1.482       .  S
O415        C421   1.270       .  A
O415       Ni434   1.917       .  S
O416        C418   1.270       .  A
O416       Ni434   1.916       .  S
Ni417       O420   1.921       .  S
Ni417       O422   1.918       .  S
C418        O428   1.278       .  A
C418        C616   1.487       .  S
O419        C425   1.288       .  A
O419       Ni435   1.946       .  S
O420        C425   1.279       .  A
C421        N584   1.422       .  S
O422        C424   1.271       .  A
O423       Ni434   1.922       .  S
C424        O430   1.278       .  A
C424        C731   1.488       .  S
C425        C737   1.482       .  S
H426        O427   0.966       .  S
O427       Ni435   1.935   1_554  S
O427       Ni429   1.881       .  S
O427       Ni434   1.906       .  S
O428       Ni429   1.936       .  S
Ni429       O433   1.898   1_554  S
Ni429       O431   1.945       .  S
O430       Ni435   1.936       .  S
C432        O433   1.269       .  A
C432        N762   1.422       .  S
O437        C458   1.273       .  A
O438        C447   1.247       .  A
O438       Ni461   1.862       .  S
O439       Ni443   1.924       .  S
O439       Ni461   1.871       .  S
O439        H462   0.966       .  S
C440        O457   1.266       .  A
C440        O449   1.280       .  A
C440        C528   1.462       .  S
O441        C447   1.275       .  A
O442        C444   1.266       .  A
Ni443       O446   1.952       .  S
C444        O454   1.266       .  A
C444        C522   1.478       .  S
O445        C451   1.266       .  A
O445       Ni461   1.872       .  S
O446        C451   1.280       .  A
C447        C557   1.444       .  S
O448        C450   1.264       .  A
O449       Ni460   1.950       .  S
C450        O456   1.267       .  A
C450        C693   1.475       .  S
C451        C699   1.464       .  S
H452        O453   0.967       .  S
O453       Ni455   1.873       .  S
O453       Ni460   1.924       .  S
Ni455       O459   1.865       .  S
Ni455       O457   1.872       .  S
C458        O459   1.247       .  A
C458        C671   1.444       .  S
O463        C484   1.273       .  A
O463      Ni1237   1.926   1_455  S
O464        C473   1.248       .  A
O464       Ni487   1.866   1_554  S
O465       Ni469   1.926       .  S
O465       Ni487   1.874       .  S
O465      Ni1249   1.907   1_556  S
O465        H488   0.968       .  S
C466        O483   1.264       .  A
C466        O475   1.278       .  A
C466        C597   1.460       .  S
O467        C473   1.274       .  A
O467      Ni1254   1.927       .  S
O468        C470   1.265       .  A
O468      Ni1254   1.912       .  S
Ni469      O1231   1.926       .  S
Ni469       O472   1.949       .  S
Ni469      O1242   1.911       .  S
C470        O480   1.268       .  A
C470        C591   1.476       .  S
O471        C477   1.265       .  A
O471       Ni487   1.873       .  S
O472        C477   1.279       .  A
C473        C626   1.446       .  S
O474        C476   1.265       .  A
O474      Ni1237   1.911   1_455  S
O475       Ni486   1.949       .  S
C476        O482   1.266       .  A
C476        C756   1.474       .  S
C477        C750   1.462       .  S
H478        O479   0.965       .  S
O479      Ni1255   1.907   1_454  S
O479       Ni481   1.875       .  S
O479       Ni486   1.925       .  S
O480      Ni1249   1.923       .  S
Ni481      O1248   1.923   1_455  S
Ni481       O485   1.866   1_554  S
Ni481       O483   1.873       .  S
Ni481      O1233   1.907   1_454  S
O482      Ni1255   1.920   1_455  S
C484        O485   1.247       .  A
C484        C716   1.444       .  S
Ni486      O1235   1.927   1_455  S
Ni486      O1236   1.912   1_455  S
Ni487      O1250   1.920       .  S
Ni487      O1247   1.907   1_556  S
O489        C510   1.277       .  A
O489      Ni1263   1.944       .  S
O490        C499   1.260       .  A
O490       Ni513   1.879   1_655  S
O491       Ni495   1.919       .  S
O491       Ni513   1.891       .  S
O491      Ni1275   1.927   1_455  S
O491        H514   0.966       .  S
C492        O509   1.282       .  A
C492        O501   1.279       .  A
C492        C674   1.493       .  S
O493        C499   1.277   1_455  A
O493      Ni1280   1.946   1_455  S
O494        C496   1.273       .  A
O494      Ni1280   1.922   1_455  S
Ni495      O1257   1.944   1_455  S
Ni495       O498   1.936       .  S
Ni495      O1268   1.922   1_455  S
C496        O506   1.272       .  A
C496        C680   1.482       .  S
O497        C503   1.283       .  A
O497       Ni513   1.946       .  S
O498        C503   1.279       .  A
C499       N1473   1.425       .  S
O500        C502   1.273       .  A
O500      Ni1263   1.922       .  S
O501       Ni512   1.935       .  S
C502        O508   1.272       .  A
C502        C541   1.484       .  S
C503        C547   1.494       .  S
H504        O505   0.966       .  S
O505      Ni1281   1.928       .  S
O505       Ni507   1.892       .  S
O505       Ni512   1.919       .  S
O506      Ni1275   1.921   1_455  S
Ni507      O1274   1.921       .  S
Ni507       O511   1.881       .  S
Ni507       O509   1.945       .  S
Ni507      O1259   1.927       .  S
O508      Ni1281   1.923       .  S
C510        O511   1.261       .  A
C510       N1283   1.425       .  S
Ni512      O1261   1.946       .  S
Ni512      O1262   1.922       .  S
Ni513      O1276   1.923   1_455  S
Ni513      O1273   1.928   1_455  S
N515       C1278   1.425   1_655  S
N515        C519   1.348   1_655  A
N515       C1284   1.343       .  A
C516        C532   1.456       .  S
C516       N1283   1.343       .  A
C516        C517   1.378       .  A
C517       C1286   1.375       .  A
C517        H520   1.083       .  S
C518       C1285   1.375   1_455  A
C518        C519   1.388       .  A
C518        H521   1.080       .  S
C519        C564   1.463       .  S
C522        N523   1.367       .  A
C522        N527   1.370       .  A
N523        C524   1.355       .  A
C524        C538   1.478       .  S
C524        N525   1.351       .  A
N525        C526   1.358       .  A
C526        C576   1.483       .  S
C526        N527   1.365       .  A
C528        N529   1.364       .  A
C528        N533   1.361       .  A
N529        C530   1.363       .  A
C530        C580   1.458       .  S
C530        N531   1.350       .  A
N531        C532   1.346       .  A
C532        N533   1.346       .  A
N534        C639   1.422       .  S
N534        C538   1.350       .  A
N534        C535   1.354       .  A
C535        C543   1.485       .  S
C535        C536   1.387       .  A
C536        C537   1.382       .  A
C536        H539   1.083       .  S
C537        C538   1.382       .  A
C537        H540   1.082       .  S
C541        N542   1.371       .  A
C541        N546   1.371       .  A
N542        C543   1.360       .  A
C543        N544   1.351       .  A
N544        C545   1.355       .  A
C545        C593   1.483       .  S
C545        N546   1.364       .  A
C547        N548   1.360       .  A
C547        N552   1.362       .  A
N548        C549   1.361       .  A
C549        C599   1.460       .  S
C549        N550   1.361       .  A
N550        C551   1.349       .  A
C551        N553   1.447       .  S
C551        N552   1.375       .  A
N553        C557   1.329       .  A
C554        C568   1.504       .  S
C554        C555   1.401       .  A
C555        C556   1.377       .  A
C555        H558   1.082       .  S
C556        H559   1.083       .  S
C560        C636   1.491       .  S
C560        N561   1.378       .  A
C560        N565   1.367       .  A
N561        C562   1.371       .  A
C562        C614   1.485       .  S
C562        N563   1.344       .  A
N563        C564   1.347       .  A
C564        N565   1.358       .  A
C566        C632   1.482       .  S
C566        N567   1.356       .  A
C566        N571   1.365       .  A
N567        C568   1.365       .  A
C568        N569   1.358       .  A
N569        C570   1.372       .  A
C570        C618   1.483       .  S
C570        N571   1.362       .  A
C572        N573   1.370       .  A
C572        N577   1.371       .  A
N573        C574   1.359       .  A
C574        C585   1.483       .  S
C574        N575   1.350       .  A
N575        C576   1.355       .  A
C576        N577   1.365       .  A
C578        N579   1.359       .  A
C578        N583   1.362       .  A
N579        C580   1.359       .  A
C580        N581   1.362       .  A
N581        C582   1.349       .  A
C582        N622   1.448       .  S
C582        N583   1.375       .  A
N584        C588   1.349       .  A
N584        C585   1.353       .  A
C585        C586   1.387       .  A
C586        C587   1.382       .  A
C586        H589   1.083       .  S
C587        C588   1.381       .  A
C587        H590   1.082       .  S
C588        C595   1.475       .  S
C591        N592   1.371       .  A
C591        N596   1.365       .  A
N592        C593   1.365       .  A
C593        N594   1.358       .  A
N594        C595   1.350       .  A
C595        N596   1.353       .  A
C597        N598   1.364       .  A
C597        N602   1.361       .  A
N598        C599   1.362       .  A
C599        N600   1.351       .  A
N600        C601   1.347       .  A
C601        C604   1.455       .  S
C601        N602   1.346       .  A
N603        C607   1.346       .  A
C604        C605   1.378       .  A
C605        H608   1.083       .  S
C606        C607   1.387       .  A
C606        H609   1.080       .  S
C607        C620   1.460       .  S
C610        N611   1.357       .  A
C610        N615   1.364       .  A
N611        C612   1.365       .  A
C612        C623   1.508       .  S
C612        N613   1.360       .  A
N613        C614   1.374       .  A
C614        N615   1.362       .  A
C616        N617   1.377       .  A
C616        N621   1.366       .  A
N617        C618   1.370       .  A
C618        N619   1.344       .  A
N619        C620   1.346       .  A
C620        N621   1.357       .  A
N622        C626   1.329       .  A
N622       C1391   1.361       .  A
C623       N1390   1.361   1_455  A
C623        C624   1.402       .  A
C624        C625   1.378       .  A
C624        H627   1.082       .  S
C625       C1394   1.372   1_455  A
C625        H628   1.083       .  S
C626       C1393   1.372       .  A
O629        C650   1.270       .  A
O629       Ni635   1.914       .  S
O630        C639   1.271       .  A
O630       Ni653   1.900       .  S
O631       Ni635   1.904       .  S
O631       Ni653   1.879       .  S
O631       Ni647   1.937       .  S
O631        H654   0.966       .  S
C632        O649   1.289       .  A
C632        O641   1.279       .  A
O633        C639   1.270       .  A
O633       Ni652   1.915       .  S
O634        C636   1.271       .  A
O634       Ni652   1.920       .  S
Ni635       O638   1.919       .  S
Ni635       O640   1.920       .  S
C636        O646   1.278       .  A
O637        C643   1.289       .  A
O637       Ni653   1.950       .  S
O638        C643   1.279       .  A
O640        C642   1.271       .  A
O641       Ni652   1.919       .  S
C642        O648   1.278       .  A
C642        C661   1.490       .  S
C643        C655   1.482       .  S
H644        O645   0.966       .  S
O645       Ni653   1.937       .  S
O645       Ni647   1.880       .  S
O645       Ni652   1.904       .  S
O646       Ni647   1.939       .  S
Ni647       O651   1.900       .  S
Ni647       O649   1.949       .  S
O648       Ni653   1.938       .  S
C650        O651   1.270       .  A
C650        N686   1.423       .  S
C655        N656   1.365       .  A
C655        N660   1.356       .  A
N656        C657   1.363       .  A
C657        C733   1.484       .  S
C657        N658   1.372       .  A
N658        C659   1.358       .  A
C659        C668   1.504       .  S
C659        N660   1.365       .  A
C661        N662   1.378       .  A
C661        N666   1.367       .  A
N662        C663   1.371       .  A
C663        C741   1.484       .  S
C663        N664   1.344       .  A
N664        C665   1.346       .  A
C665        C706   1.462       .  S
C665        N666   1.358       .  A
N667        C678   1.448       .  S
N667        C671   1.330       .  A
C668        C669   1.401       .  A
C669        C670   1.377       .  A
C669        H672   1.082       .  S
C670        H673   1.083       .  S
C674        N675   1.360       .  A
C674        N679   1.361       .  A
N675        C676   1.360       .  A
C676        C754   1.460       .  S
C676        N677   1.362       .  A
N677        C678   1.349       .  A
C678        N679   1.375       .  A
C680        N681   1.370       .  A
C680        N685   1.370       .  A
N681        C682   1.364       .  A
C682        C760   1.481       .  S
C682        N683   1.355       .  A
N683        C684   1.350       .  A
C684        C687   1.483       .  S
C684        N685   1.359       .  A
N686        C690   1.349       .  A
N686        C687   1.354       .  A
C687        C688   1.388       .  A
C688        C689   1.381       .  A
C688        H691   1.083       .  S
C689        C690   1.381       .  A
C689        H692   1.083       .  S
C690        C695   1.474       .  S
C693        N694   1.364       .  A
C693        N698   1.371       .  A
N694        C695   1.353       .  A
C695        N696   1.351       .  A
N696        C697   1.358       .  A
C697        C723   1.483       .  S
C697        N698   1.365       .  A
C699        N700   1.361       .  A
C699        N704   1.365       .  A
N700        C701   1.345       .  A
C701        C709   1.455       .  S
C701        N702   1.346       .  A
N702        C703   1.350       .  A
C703        C729   1.461       .  S
C703        N704   1.365       .  A
N705       C1267   1.425       .  S
N705       C1477   1.342       .  A
N705        C706   1.347       .  A
C706        C707   1.387       .  A
C707       C1476   1.376       .  A
C707        H710   1.080       .  S
C708       C1475   1.376   1_455  A
C708        C709   1.379       .  A
C708        H711   1.083       .  S
C709       N1473   1.342   1_455  A
N712        C727   1.450       .  S
N712        C716   1.330       .  A
N712       C1481   1.361   1_455  A
C713        C739   1.506       .  S
C713       N1480   1.361       .  A
C713        C714   1.402       .  A
C714        C715   1.377       .  A
C714        H717   1.083       .  S
C715       C1484   1.371       .  A
C715        H718   1.083   1_556  S
C716       C1483   1.371   1_455  A
C719        N720   1.371       .  A
C719        N724   1.370       .  A
N720        C721   1.360       .  A
C721        C763   1.484       .  S
C721        N722   1.351       .  A
N722        C723   1.355       .  A
C723        N724   1.365       .  A
C725        N726   1.361       .  A
C725        N730   1.359       .  A
N726        C727   1.375       .  A
C727        N728   1.351       .  A
N728        C729   1.363       .  A
C729        N730   1.360       .  A
C731        N732   1.377       .  A
C731        N736   1.367       .  A
N732        C733   1.370       .  A
C733        N734   1.345       .  A
N734        C735   1.347       .  A
C735        C747   1.461       .  S
C735        N736   1.358       .  A
C737        N738   1.357       .  A
C737        N742   1.364       .  A
N738        C739   1.366       .  A
C739        N740   1.359       .  A
N740        C741   1.373       .  A
C741        N742   1.362       .  A
N743        C747   1.346       .  A
C744        C752   1.455       .  S
C744        C745   1.378       .  A
C745        H748   1.083       .  S
C746        C747   1.387       .  A
C746        H749   1.080       .  S
C750        N751   1.361       .  A
C750        N755   1.364       .  A
N751        C752   1.346       .  A
C752        N753   1.346       .  A
N753        C754   1.350       .  A
C754        N755   1.363       .  A
C756        N757   1.365       .  A
C756        N761   1.370       .  A
N757        C758   1.354       .  A
C758        C766   1.474       .  S
C758        N759   1.350       .  A
N759        C760   1.357       .  A
C760        N761   1.364       .  A
N762        C766   1.349       .  A
N762        C763   1.354       .  A
C763        C764   1.387       .  A
C764        C765   1.382       .  A
C764        H767   1.083       .  S
C765        C766   1.382       .  A
C765        H768   1.083       .  S
O769        C790   1.277       .  A
O769      Ni1159   1.948       .  S
O770       C1163   1.259       .  A
O770      Ni1177   1.876   1_556  S
O771       Ni775   1.918       .  S
O771       Ni793   1.891       .  S
O771      Ni1171   1.925   1_544  S
O771        H794   0.966       .  S
C772        O789   1.281       .  A
C772        O781   1.279       .  A
C772       C1109   1.492       .  S
O773        C779   1.277   1_545  A
O773      Ni1176   1.947   1_545  S
O774        C776   1.273       .  A
O774      Ni1176   1.924   1_545  S
Ni775      O1153   1.948   1_545  S
Ni775       O778   1.937       .  S
Ni775      O1164   1.921   1_545  S
C776        O786   1.271       .  A
C776       C1103   1.485       .  S
O777        C783   1.281       .  A
O777       Ni793   1.941       .  S
O778        C783   1.280       .  A
C779       O1154   1.259       .  A
C779       N1511   1.424       .  S
O780        C782   1.272       .  A
O780      Ni1159   1.921       .  S
O781       Ni792   1.935       .  S
C782        O788   1.272       .  A
C782        C956   1.484       .  S
C783        C962   1.492       .  S
H784        O785   0.966       .  S
O785      Ni1177   1.924   1_556  S
O785       Ni787   1.891       .  S
O785       Ni792   1.920       .  S
O786      Ni1171   1.923   1_545  S
Ni787      O1170   1.923       .  S
Ni787      O1175   1.877   1_556  S
Ni787       O789   1.942       .  S
Ni787      O1155   1.925   1_556  S
O788      Ni1177   1.924       .  S
C790       O1175   1.259       .  A
C790       N1371   1.425       .  S
O791       C1174   1.259       .  A
O791      Ni1171   1.877   1_544  S
Ni792      O1157   1.947       .  S
Ni792      O1158   1.924       .  S
Ni793      O1154   1.876   1_544  S
Ni793      O1172   1.924   1_545  S
Ni793      O1169   1.924   1_544  S
O795        C816   1.270       .  A
O795       Ni801   1.915       .  S
O796        C805   1.270       .  A
O796       Ni819   1.898   1_554  S
O797       Ni801   1.906       .  S
O797       Ni819   1.881       .  S
O797       Ni813   1.936   1_556  S
O797        H820   0.966       .  S
C798        O815   1.287       .  A
C798        O807   1.279       .  A
C798        C994   1.482       .  S
O799        C805   1.270       .  A
O799       Ni818   1.917       .  S
O800        C802   1.270       .  A
O800       Ni818   1.916       .  S
Ni801       O804   1.921       .  S
Ni801       O806   1.918       .  S
C802        O812   1.278       .  A
C802       C1000   1.487       .  S
O803        C809   1.288       .  A
O803       Ni819   1.946       .  S
O804        C809   1.279       .  A
C805        N968   1.422       .  S
O806        C808   1.271       .  A
O807       Ni818   1.922       .  S
C808        O814   1.278       .  A
C808       C1115   1.488       .  S
C809       C1121   1.482       .  S
H810        O811   0.966       .  S
O811       Ni819   1.935   1_554  S
O811       Ni813   1.881       .  S
O811       Ni818   1.906       .  S
O812       Ni813   1.936       .  S
Ni813       O817   1.898   1_554  S
Ni813       O815   1.945       .  S
O814       Ni819   1.936       .  S
C816        O817   1.269       .  A
C816       N1146   1.422       .  S
O821        C842   1.273       .  A
O821      Ni1211   1.927   1_545  S
O822        C831   1.247       .  A
O822       Ni845   1.862       .  S
O823       Ni827   1.924       .  S
O823       Ni845   1.871       .  S
O823      Ni1223   1.909       .  S
O823        H846   0.966       .  S
C824        O841   1.266       .  A
C824        O833   1.280       .  A
C824        C912   1.462       .  S
O825        C831   1.275       .  A
O825      Ni1228   1.931       .  S
O826        C828   1.266       .  A
O826      Ni1228   1.915       .  S
Ni827      O1205   1.927       .  S
Ni827       O830   1.952       .  S
Ni827      O1216   1.911       .  S
C828        O838   1.266       .  A
C828        C906   1.478       .  S
O829        C835   1.266       .  A
O829       Ni845   1.872       .  S
O830        C835   1.280       .  A
C831        C941   1.444       .  S
O832        C834   1.264       .  A
O832      Ni1211   1.911   1_545  S
O833       Ni844   1.950       .  S
C834        O840   1.267       .  A
C834       C1077   1.475       .  S
C835       C1083   1.464       .  S
H836        O837   0.967       .  S
O837      Ni1229   1.906   1_545  S
O837       Ni839   1.873       .  S
O837       Ni844   1.924       .  S
O838      Ni1223   1.920       .  S
Ni839      O1222   1.920   1_545  S
Ni839       O843   1.865       .  S
Ni839       O841   1.872       .  S
Ni839      O1207   1.909   1_545  S
O840      Ni1229   1.920   1_545  S
C842        O843   1.247       .  A
C842       C1055   1.444       .  S
Ni844      O1209   1.931   1_545  S
Ni844      O1210   1.915   1_545  S
Ni845      O1224   1.920       .  S
Ni845      O1221   1.906       .  S
O847        C868   1.273       .  A
O848        C857   1.248       .  A
O848       Ni871   1.866   1_554  S
O849       Ni853   1.926       .  S
O849       Ni871   1.874       .  S
O849        H872   0.968       .  S
C850        O867   1.264       .  A
C850        O859   1.278       .  A
C850        C981   1.460       .  S
O851        C857   1.274       .  A
O852        C854   1.265       .  A
Ni853       O856   1.949       .  S
C854        O864   1.268       .  A
C854        C975   1.476       .  S
O855        C861   1.265       .  A
O855       Ni871   1.873       .  S
O856        C861   1.279       .  A
C857       C1010   1.446       .  S
O858        C860   1.265       .  A
O859       Ni870   1.949       .  S
C860        O866   1.266       .  A
C860       C1140   1.474       .  S
C861       C1134   1.462       .  S
H862        O863   0.965       .  S
O863       Ni865   1.875       .  S
O863       Ni870   1.925       .  S
Ni865       O869   1.866   1_554  S
Ni865       O867   1.873       .  S
C868        O869   1.247       .  A
C868       C1100   1.444       .  S
O873        C894   1.277   1_655  A
O874        C883   1.260       .  A
O874       Ni897   1.879       .  S
O875       Ni879   1.919       .  S
O875       Ni897   1.891       .  S
O875        H898   0.966       .  S
C876        O893   1.282       .  A
C876        O885   1.279       .  A
C876       C1058   1.493       .  S
O877        C883   1.277       .  A
O878        C880   1.273       .  A
Ni879       O882   1.936       .  S
C880        O890   1.272       .  A
C880       C1064   1.482       .  S
O881        C887   1.283       .  A
O881       Ni897   1.946       .  S
O882        C887   1.279       .  A
O884        C886   1.273       .  A
O885       Ni896   1.935       .  S
C886        O892   1.272       .  A
C886        C925   1.484       .  S
C887        C931   1.494       .  S
H888        O889   0.966       .  S
O889       Ni891   1.892       .  S
O889       Ni896   1.919       .  S
Ni891       O895   1.881   1_655  S
Ni891       O893   1.945       .  S
C894        O895   1.261       .  A
N899        C903   1.348       .  A
C900        C916   1.456       .  S
C900        C901   1.378       .  A
C901        H904   1.083       .  S
C902        C903   1.388       .  A
C902        H905   1.080       .  S
C903        C948   1.463       .  S
C906        N907   1.367       .  A
C906        N911   1.370       .  A
N907        C908   1.355       .  A
C908        C922   1.478       .  S
C908        N909   1.351       .  A
N909        C910   1.358       .  A
C910        C960   1.483       .  S
C910        N911   1.365       .  A
C912        N913   1.364       .  A
C912        N917   1.361       .  A
N913        C914   1.363       .  A
C914        C964   1.458       .  S
C914        N915   1.350       .  A
N915        C916   1.346       .  A
C916        N917   1.346       .  A
N918       C1023   1.422       .  S
N918        C922   1.350       .  A
N918        C919   1.354       .  A
C919        C927   1.485       .  S
C919        C920   1.387       .  A
C920        C921   1.382       .  A
C920        H923   1.083       .  S
C921        C922   1.382       .  A
C921        H924   1.082       .  S
C925        N926   1.371       .  A
C925        N930   1.371       .  A
N926        C927   1.360       .  A
C927        N928   1.351       .  A
N928        C929   1.355       .  A
C929        C977   1.483       .  S
C929        N930   1.364       .  A
C931        N932   1.360       .  A
C931        N936   1.362       .  A
N932        C933   1.361       .  A
C933        C983   1.460       .  S
C933        N934   1.361       .  A
N934        C935   1.349       .  A
C935        N937   1.447       .  S
C935        N936   1.375       .  A
N937        C941   1.329       .  A
N937       C1322   1.359       .  A
C938        C952   1.504       .  S
C938       N1321   1.359   1_545  A
C938        C939   1.401       .  A
C939        C940   1.377       .  A
C939        H942   1.082       .  S
C940       C1325   1.372   1_545  A
C940        H943   1.083       .  S
C941       C1324   1.372       .  A
C944       C1020   1.491       .  S
C944        N945   1.378       .  A
C944        N949   1.367       .  A
N945        C946   1.371       .  A
C946        C998   1.485       .  S
C946        N947   1.344       .  A
N947        C948   1.347       .  A
C948        N949   1.358       .  A
C950       C1016   1.482       .  S
C950        N951   1.356       .  A
C950        N955   1.365       .  A
N951        C952   1.365       .  A
C952        N953   1.358       .  A
N953        C954   1.372       .  A
C954       C1002   1.483       .  S
C954        N955   1.362       .  A
C956        N957   1.370       .  A
C956        N961   1.371       .  A
N957        C958   1.359       .  A
C958        C969   1.483       .  S
C958        N959   1.350       .  A
N959        C960   1.355       .  A
C960        N961   1.365       .  A
C962        N963   1.359       .  A
C962        N967   1.362       .  A
N963        C964   1.359       .  A
C964        N965   1.362       .  A
N965        C966   1.349       .  A
C966       N1006   1.449       .  S
C966        N967   1.375       .  A
N968        C972   1.349       .  A
N968        C969   1.353       .  A
C969        C970   1.387       .  A
C970        C971   1.382       .  A
C970        H973   1.083       .  S
C971        C972   1.381       .  A
C971        H974   1.082       .  S
C972        C979   1.475       .  S
C975        N976   1.371       .  A
C975        N980   1.365       .  A
N976        C977   1.365       .  A
C977        N978   1.358       .  A
N978        C979   1.350       .  A
C979        N980   1.353       .  A
C981        N982   1.364       .  A
C981        N986   1.361       .  A
N982        C983   1.362       .  A
C983        N984   1.351       .  A
N984        C985   1.347       .  A
C985        C988   1.455       .  S
C985        N986   1.346       .  A
N987       C1174   1.425   1_565  S
N987        C991   1.346   1_565  A
N987       C1372   1.343       .  A
C988       N1371   1.343       .  A
C988        C989   1.378       .  A
C989       C1374   1.376       .  A
C989        H992   1.083       .  S
C990       C1373   1.376   1_545  A
C990        C991   1.387       .  A
C990        H993   1.080       .  S
C991       C1004   1.460       .  S
C994        N995   1.357       .  A
C994        N999   1.364       .  A
N995        C996   1.365       .  A
C996       C1007   1.508       .  S
C996        N997   1.360       .  A
N997        C998   1.374       .  A
C998        N999   1.362       .  A
C1000      N1001   1.377       .  A
C1000      N1005   1.366       .  A
N1001      C1002   1.370       .  A
C1002      N1003   1.344       .  A
N1003      C1004   1.346       .  A
C1004      N1005   1.357       .  A
N1006      C1010   1.329       .  A
C1007      C1008   1.402       .  A
C1008      C1009   1.378       .  A
C1008      H1011   1.082       .  S
C1009      H1012   1.083       .  S
O1013      C1034   1.270       .  A
O1013     Ni1019   1.914       .  S
O1014      C1023   1.271       .  A
O1014     Ni1037   1.900       .  S
O1015     Ni1019   1.904       .  S
O1015     Ni1037   1.879       .  S
O1015     Ni1031   1.937       .  S
O1015      H1038   0.966       .  S
C1016      O1033   1.289       .  A
C1016      O1025   1.279       .  A
O1017      C1023   1.270       .  A
O1017     Ni1036   1.914       .  S
O1018      C1020   1.271       .  A
O1018     Ni1036   1.920       .  S
Ni1019     O1022   1.919       .  S
Ni1019     O1024   1.919       .  S
C1020      O1030   1.278       .  A
O1021      C1027   1.289       .  A
O1021     Ni1037   1.950       .  S
O1022      C1027   1.279       .  A
O1024      C1026   1.271       .  A
O1025     Ni1036   1.919       .  S
C1026      O1032   1.278       .  A
C1026      C1045   1.490       .  S
C1027      C1039   1.482       .  S
H1028      O1029   0.966       .  S
O1029     Ni1037   1.937       .  S
O1029     Ni1031   1.880       .  S
O1029     Ni1036   1.904       .  S
O1030     Ni1031   1.939       .  S
Ni1031     O1035   1.900       .  S
Ni1031     O1033   1.949       .  S
O1032     Ni1037   1.938       .  S
C1034      O1035   1.270       .  A
C1034      N1070   1.423       .  S
C1039      N1040   1.365       .  A
C1039      N1044   1.356       .  A
N1040      C1041   1.363       .  A
C1041      C1117   1.484       .  S
C1041      N1042   1.372       .  A
N1042      C1043   1.358       .  A
C1043      C1052   1.504       .  S
C1043      N1044   1.365       .  A
C1045      N1046   1.378       .  A
C1045      N1050   1.367       .  A
N1046      C1047   1.371       .  A
C1047      C1125   1.484       .  S
C1047      N1048   1.344       .  A
N1048      C1049   1.346       .  A
C1049      C1090   1.462       .  S
C1049      N1050   1.358       .  A
N1051      C1062   1.448       .  S
N1051      C1055   1.330       .  A
N1051      C1436   1.360   1_545  A
C1052      N1435   1.360       .  A
C1052      C1053   1.401       .  A
C1053      C1054   1.377       .  A
C1053      H1056   1.082       .  S
C1054      C1439   1.371       .  A
C1054      H1057   1.083       .  S
C1055      C1438   1.371   1_545  A
C1058      N1059   1.360       .  A
C1058      N1063   1.361       .  A
N1059      C1060   1.360       .  A
C1060      C1138   1.460       .  S
C1060      N1061   1.362       .  A
N1061      C1062   1.349       .  A
C1062      N1063   1.375       .  A
C1064      N1065   1.370       .  A
C1064      N1069   1.370       .  A
N1065      C1066   1.364       .  A
C1066      C1144   1.481       .  S
C1066      N1067   1.355       .  A
N1067      C1068   1.350       .  A
C1068      C1071   1.483       .  S
C1068      N1069   1.359       .  A
N1070      C1074   1.349       .  A
N1070      C1071   1.354       .  A
C1071      C1072   1.388       .  A
C1072      C1073   1.381       .  A
C1072      H1075   1.083       .  S
C1073      C1074   1.381       .  A
C1073      H1076   1.083       .  S
C1074      C1079   1.474       .  S
C1077      N1078   1.364       .  A
C1077      N1082   1.371       .  A
N1078      C1079   1.353       .  A
C1079      N1080   1.351       .  A
N1080      C1081   1.358       .  A
C1081      C1107   1.483       .  S
C1081      N1082   1.365       .  A
C1083      N1084   1.361       .  A
C1083      N1088   1.365       .  A
N1084      C1085   1.345       .  A
C1085      C1093   1.455       .  S
C1085      N1086   1.346       .  A
N1086      C1087   1.350       .  A
C1087      C1113   1.461       .  S
C1087      N1088   1.365       .  A
N1089      C1090   1.347       .  A
C1090      C1091   1.387       .  A
C1091      H1094   1.080       .  S
C1092      C1093   1.379       .  A
C1092      H1095   1.083       .  S
N1096      C1111   1.450       .  S
N1096      C1100   1.330       .  A
C1097      C1123   1.506       .  S
C1097      C1098   1.402       .  A
C1098      C1099   1.377       .  A
C1098      H1101   1.083       .  S
C1099      H1102   1.083   1_556  S
C1103      N1104   1.371       .  A
C1103      N1108   1.370       .  A
N1104      C1105   1.360       .  A
C1105      C1147   1.484       .  S
C1105      N1106   1.351       .  A
N1106      C1107   1.355       .  A
C1107      N1108   1.365       .  A
C1109      N1110   1.361       .  A
C1109      N1114   1.359       .  A
N1110      C1111   1.375       .  A
C1111      N1112   1.351       .  A
N1112      C1113   1.363       .  A
C1113      N1114   1.360       .  A
C1115      N1116   1.377       .  A
C1115      N1120   1.367       .  A
N1116      C1117   1.370       .  A
C1117      N1118   1.345       .  A
N1118      C1119   1.347       .  A
C1119      C1131   1.461       .  S
C1119      N1120   1.358       .  A
C1121      N1122   1.357       .  A
C1121      N1126   1.364       .  A
N1122      C1123   1.366       .  A
C1123      N1124   1.359       .  A
N1124      C1125   1.373       .  A
C1125      N1126   1.362       .  A
N1127      C1163   1.424       .  S
N1127      C1131   1.346       .  A
N1127      C1512   1.342       .  A
C1128      C1136   1.455       .  S
C1128      N1511   1.342   1_545  A
C1128      C1129   1.378       .  A
C1129      C1514   1.377   1_545  A
C1129      H1132   1.083       .  S
C1130      C1513   1.377       .  A
C1130      C1131   1.387       .  A
C1130      H1133   1.080       .  S
C1134      N1135   1.361       .  A
C1134      N1139   1.364       .  A
N1135      C1136   1.346       .  A
C1136      N1137   1.346       .  A
N1137      C1138   1.350       .  A
C1138      N1139   1.363       .  A
C1140      N1141   1.365       .  A
C1140      N1145   1.370       .  A
N1141      C1142   1.354       .  A
C1142      C1150   1.474       .  S
C1142      N1143   1.350       .  A
N1143      C1144   1.357       .  A
C1144      N1145   1.364       .  A
N1146      C1150   1.349       .  A
N1146      C1147   1.354       .  A
C1147      C1148   1.387       .  A
C1148      C1149   1.382       .  A
C1148      H1151   1.083       .  S
C1149      C1150   1.382       .  A
C1149      H1152   1.083       .  S
O1153      C1174   1.277   1_565  A
O1155     Ni1159   1.918       .  S
O1155     Ni1177   1.891       .  S
O1155      H1178   0.966       .  S
C1156      O1173   1.281       .  A
C1156      O1165   1.279       .  A
C1156      C1493   1.492       .  S
O1157      C1163   1.277       .  A
O1158      C1160   1.273       .  A
Ni1159     O1162   1.937       .  S
C1160      O1170   1.271       .  A
C1160      C1487   1.485       .  S
O1161      C1167   1.281       .  A
O1161     Ni1177   1.941       .  S
O1162      C1167   1.280       .  A
O1164      C1166   1.272       .  A
O1165     Ni1176   1.935       .  S
C1166      O1172   1.272       .  A
C1166      C1340   1.484       .  S
C1167      C1346   1.492       .  S
H1168      O1169   0.966       .  S
O1169     Ni1171   1.891       .  S
O1169     Ni1176   1.920       .  S
Ni1171     O1173   1.942       .  S
O1179      C1200   1.270       .  A
O1179     Ni1185   1.915       .  S
O1180      C1189   1.270       .  A
O1180     Ni1203   1.898   1_554  S
O1181     Ni1185   1.906       .  S
O1181     Ni1203   1.881       .  S
O1181     Ni1197   1.936   1_556  S
O1181      H1204   0.966       .  S
C1182      O1199   1.287       .  A
C1182      O1191   1.279       .  A
C1182      C1378   1.482       .  S
O1183      C1189   1.270       .  A
O1183     Ni1202   1.917       .  S
O1184      C1186   1.270       .  A
O1184     Ni1202   1.916       .  S
Ni1185     O1188   1.921       .  S
Ni1185     O1190   1.918       .  S
C1186      O1196   1.278       .  A
C1186      C1384   1.487       .  S
O1187      C1193   1.288       .  A
O1187     Ni1203   1.946       .  S
O1188      C1193   1.279       .  A
C1189      N1352   1.422       .  S
O1190      C1192   1.271       .  A
O1191     Ni1202   1.922       .  S
C1192      O1198   1.278       .  A
C1192      C1499   1.488       .  S
C1193      C1505   1.482       .  S
H1194      O1195   0.966       .  S
O1195     Ni1203   1.935   1_554  S
O1195     Ni1197   1.881       .  S
O1195     Ni1202   1.906       .  S
O1196     Ni1197   1.936       .  S
Ni1197     O1201   1.898   1_554  S
Ni1197     O1199   1.945       .  S
O1198     Ni1203   1.936       .  S
C1200      O1201   1.269       .  A
C1200      N1530   1.422       .  S
O1205      C1226   1.273       .  A
O1206      C1215   1.247       .  A
O1206     Ni1229   1.862       .  S
O1207     Ni1211   1.924       .  S
O1207     Ni1229   1.871       .  S
O1207      H1230   0.966       .  S
C1208      O1225   1.266       .  A
C1208      O1217   1.280       .  A
C1208      C1296   1.462       .  S
O1209      C1215   1.275       .  A
O1210      C1212   1.266       .  A
Ni1211     O1214   1.952       .  S
C1212      O1222   1.266       .  A
C1212      C1290   1.478       .  S
O1213      C1219   1.266       .  A
O1213     Ni1229   1.872       .  S
O1214      C1219   1.280       .  A
C1215      C1325   1.444       .  S
O1216      C1218   1.264       .  A
O1217     Ni1228   1.950       .  S
C1218      O1224   1.267       .  A
C1218      C1461   1.475       .  S
C1219      C1467   1.464       .  S
H1220      O1221   0.967       .  S
O1221     Ni1223   1.873       .  S
O1221     Ni1228   1.924       .  S
Ni1223     O1227   1.865       .  S
Ni1223     O1225   1.872       .  S
C1226      O1227   1.247       .  A
C1226      C1439   1.444       .  S
O1231      C1252   1.273       .  A
O1232      C1241   1.248       .  A
O1232     Ni1255   1.866   1_554  S
O1233     Ni1237   1.926       .  S
O1233     Ni1255   1.874       .  S
O1233      H1256   0.968       .  S
C1234      O1251   1.264       .  A
C1234      O1243   1.278       .  A
C1234      C1365   1.460       .  S
O1235      C1241   1.274       .  A
O1236      C1238   1.265       .  A
Ni1237     O1240   1.949       .  S
C1238      O1248   1.268       .  A
C1238      C1359   1.476       .  S
O1239      C1245   1.265       .  A
O1239     Ni1255   1.873       .  S
O1240      C1245   1.279       .  A
C1241      C1394   1.446       .  S
O1242      C1244   1.265       .  A
O1243     Ni1254   1.949       .  S
C1244      O1250   1.266       .  A
C1244      C1524   1.474       .  S
C1245      C1518   1.462       .  S
H1246      O1247   0.965       .  S
O1247     Ni1249   1.875       .  S
O1247     Ni1254   1.925       .  S
Ni1249     O1253   1.866   1_554  S
Ni1249     O1251   1.873       .  S
C1252      O1253   1.247       .  A
C1252      C1484   1.444       .  S
O1257      C1278   1.277   1_655  A
O1258      C1267   1.260       .  A
O1258     Ni1281   1.879       .  S
O1259     Ni1263   1.919       .  S
O1259     Ni1281   1.891       .  S
O1259      H1282   0.966       .  S
C1260      O1277   1.282       .  A
C1260      O1269   1.279       .  A
C1260      C1442   1.493       .  S
O1261      C1267   1.277       .  A
O1262      C1264   1.273       .  A
Ni1263     O1266   1.936       .  S
C1264      O1274   1.272       .  A
C1264      C1448   1.482       .  S
O1265      C1271   1.283       .  A
O1265     Ni1281   1.946       .  S
O1266      C1271   1.279       .  A
O1268      C1270   1.273       .  A
O1269     Ni1280   1.935       .  S
C1270      O1276   1.272       .  A
C1270      C1309   1.484       .  S
C1271      C1315   1.494       .  S
H1272      O1273   0.966       .  S
O1273     Ni1275   1.892       .  S
O1273     Ni1280   1.919       .  S
Ni1275     O1279   1.881   1_655  S
Ni1275     O1277   1.945       .  S
C1278      O1279   1.261       .  A
N1283      C1287   1.348       .  A
C1284      C1300   1.456       .  S
C1284      C1285   1.378       .  A
C1285      H1288   1.083       .  S
C1286      C1287   1.388       .  A
C1286      H1289   1.080       .  S
C1287      C1332   1.463       .  S
C1290      N1291   1.367       .  A
C1290      N1295   1.370       .  A
N1291      C1292   1.355       .  A
C1292      C1306   1.478       .  S
C1292      N1293   1.351       .  A
N1293      C1294   1.358       .  A
C1294      C1344   1.483       .  S
C1294      N1295   1.365       .  A
C1296      N1297   1.364       .  A
C1296      N1301   1.361       .  A
N1297      C1298   1.363       .  A
C1298      C1348   1.458       .  S
C1298      N1299   1.350       .  A
N1299      C1300   1.346       .  A
C1300      N1301   1.346       .  A
N1302      C1407   1.422       .  S
N1302      C1306   1.350       .  A
N1302      C1303   1.354       .  A
C1303      C1311   1.485       .  S
C1303      C1304   1.387       .  A
C1304      C1305   1.382       .  A
C1304      H1307   1.083       .  S
C1305      C1306   1.382       .  A
C1305      H1308   1.082       .  S
C1309      N1310   1.371       .  A
C1309      N1314   1.371       .  A
N1310      C1311   1.360       .  A
C1311      N1312   1.351       .  A
N1312      C1313   1.355       .  A
C1313      C1361   1.483       .  S
C1313      N1314   1.364       .  A
C1315      N1316   1.360       .  A
C1315      N1320   1.362       .  A
N1316      C1317   1.361       .  A
C1317      C1367   1.460       .  S
C1317      N1318   1.361       .  A
N1318      C1319   1.349       .  A
C1319      N1321   1.447       .  S
C1319      N1320   1.375       .  A
N1321      C1325   1.329       .  A
C1322      C1336   1.504       .  S
C1322      C1323   1.401       .  A
C1323      C1324   1.377       .  A
C1323      H1326   1.082       .  S
C1324      H1327   1.083       .  S
C1328      C1404   1.491       .  S
C1328      N1329   1.378       .  A
C1328      N1333   1.367       .  A
N1329      C1330   1.371       .  A
C1330      C1382   1.485       .  S
C1330      N1331   1.344       .  A
N1331      C1332   1.347       .  A
C1332      N1333   1.358       .  A
C1334      C1400   1.482       .  S
C1334      N1335   1.356       .  A
C1334      N1339   1.365       .  A
N1335      C1336   1.365       .  A
C1336      N1337   1.358       .  A
N1337      C1338   1.372       .  A
C1338      C1386   1.483       .  S
C1338      N1339   1.362       .  A
C1340      N1341   1.370       .  A
C1340      N1345   1.371       .  A
N1341      C1342   1.359       .  A
C1342      C1353   1.483       .  S
C1342      N1343   1.350       .  A
N1343      C1344   1.355       .  A
C1344      N1345   1.365       .  A
C1346      N1347   1.359       .  A
C1346      N1351   1.362       .  A
N1347      C1348   1.359       .  A
C1348      N1349   1.362       .  A
N1349      C1350   1.349       .  A
C1350      N1390   1.448       .  S
C1350      N1351   1.375       .  A
N1352      C1356   1.349       .  A
N1352      C1353   1.353       .  A
C1353      C1354   1.387       .  A
C1354      C1355   1.382       .  A
C1354      H1357   1.083       .  S
C1355      C1356   1.381       .  A
C1355      H1358   1.082       .  S
C1356      C1363   1.475       .  S
C1359      N1360   1.371       .  A
C1359      N1364   1.365       .  A
N1360      C1361   1.365       .  A
C1361      N1362   1.358       .  A
N1362      C1363   1.350       .  A
C1363      N1364   1.353       .  A
C1365      N1366   1.364       .  A
C1365      N1370   1.361       .  A
N1366      C1367   1.362       .  A
C1367      N1368   1.351       .  A
N1368      C1369   1.347       .  A
C1369      C1372   1.455       .  S
C1369      N1370   1.346       .  A
N1371      C1375   1.346       .  A
C1372      C1373   1.378       .  A
C1373      H1376   1.083       .  S
C1374      C1375   1.387       .  A
C1374      H1377   1.080       .  S
C1375      C1388   1.460       .  S
C1378      N1379   1.357       .  A
C1378      N1383   1.364       .  A
N1379      C1380   1.365       .  A
C1380      C1391   1.508       .  S
C1380      N1381   1.360       .  A
N1381      C1382   1.374       .  A
C1382      N1383   1.362       .  A
C1384      N1385   1.377       .  A
C1384      N1389   1.366       .  A
N1385      C1386   1.370       .  A
C1386      N1387   1.344       .  A
N1387      C1388   1.346       .  A
C1388      N1389   1.357       .  A
N1390      C1394   1.329       .  A
C1391      C1392   1.402       .  A
C1392      C1393   1.378       .  A
C1392      H1395   1.082       .  S
C1393      H1396   1.083       .  S
O1397      C1418   1.270       .  A
O1397     Ni1403   1.914       .  S
O1398      C1407   1.271       .  A
O1398     Ni1421   1.900       .  S
O1399     Ni1403   1.904       .  S
O1399     Ni1421   1.879       .  S
O1399     Ni1415   1.937       .  S
O1399      H1422   0.966       .  S
C1400      O1417   1.289       .  A
C1400      O1409   1.279       .  A
O1401      C1407   1.270       .  A
O1401     Ni1420   1.915       .  S
O1402      C1404   1.271       .  A
O1402     Ni1420   1.920       .  S
Ni1403     O1406   1.919       .  S
Ni1403     O1408   1.920       .  S
C1404      O1414   1.278       .  A
O1405      C1411   1.289       .  A
O1405     Ni1421   1.950       .  S
O1406      C1411   1.279       .  A
O1408      C1410   1.271       .  A
O1409     Ni1420   1.919       .  S
C1410      O1416   1.278       .  A
C1410      C1429   1.490       .  S
C1411      C1423   1.482       .  S
H1412      O1413   0.966       .  S
O1413     Ni1421   1.937       .  S
O1413     Ni1415   1.880       .  S
O1413     Ni1420   1.904       .  S
O1414     Ni1415   1.939       .  S
Ni1415     O1419   1.900       .  S
Ni1415     O1417   1.949       .  S
O1416     Ni1421   1.938       .  S
C1418      O1419   1.270       .  A
C1418      N1454   1.423       .  S
C1423      N1424   1.365       .  A
C1423      N1428   1.356       .  A
N1424      C1425   1.363       .  A
C1425      C1501   1.484       .  S
C1425      N1426   1.372       .  A
N1426      C1427   1.358       .  A
C1427      C1436   1.504       .  S
C1427      N1428   1.365       .  A
C1429      N1430   1.378       .  A
C1429      N1434   1.367       .  A
N1430      C1431   1.371       .  A
C1431      C1509   1.484       .  S
C1431      N1432   1.344       .  A
N1432      C1433   1.346       .  A
C1433      C1474   1.462       .  S
C1433      N1434   1.358       .  A
N1435      C1446   1.448       .  S
N1435      C1439   1.330       .  A
C1436      C1437   1.401       .  A
C1437      C1438   1.377       .  A
C1437      H1440   1.082       .  S
C1438      H1441   1.083       .  S
C1442      N1443   1.360       .  A
C1442      N1447   1.361       .  A
N1443      C1444   1.360       .  A
C1444      C1522   1.460       .  S
C1444      N1445   1.362       .  A
N1445      C1446   1.349       .  A
C1446      N1447   1.375       .  A
C1448      N1449   1.370       .  A
C1448      N1453   1.370       .  A
N1449      C1450   1.364       .  A
C1450      C1528   1.481       .  S
C1450      N1451   1.355       .  A
N1451      C1452   1.350       .  A
C1452      C1455   1.483       .  S
C1452      N1453   1.359       .  A
N1454      C1458   1.349       .  A
N1454      C1455   1.354       .  A
C1455      C1456   1.388       .  A
C1456      C1457   1.381       .  A
C1456      H1459   1.083       .  S
C1457      C1458   1.381       .  A
C1457      H1460   1.083       .  S
C1458      C1463   1.474       .  S
C1461      N1462   1.364       .  A
C1461      N1466   1.371       .  A
N1462      C1463   1.353       .  A
C1463      N1464   1.351       .  A
N1464      C1465   1.358       .  A
C1465      C1491   1.483       .  S
C1465      N1466   1.365       .  A
C1467      N1468   1.361       .  A
C1467      N1472   1.365       .  A
N1468      C1469   1.345       .  A
C1469      C1477   1.455       .  S
C1469      N1470   1.346       .  A
N1470      C1471   1.350       .  A
C1471      C1497   1.461       .  S
C1471      N1472   1.365       .  A
N1473      C1474   1.347       .  A
C1474      C1475   1.387       .  A
C1475      H1478   1.080       .  S
C1476      C1477   1.379       .  A
C1476      H1479   1.083       .  S
N1480      C1495   1.450       .  S
N1480      C1484   1.330       .  A
C1481      C1507   1.506       .  S
C1481      C1482   1.402       .  A
C1482      C1483   1.377       .  A
C1482      H1485   1.083       .  S
C1483      H1486   1.083   1_556  S
C1487      N1488   1.371       .  A
C1487      N1492   1.370       .  A
N1488      C1489   1.360       .  A
C1489      C1531   1.484       .  S
C1489      N1490   1.351       .  A
N1490      C1491   1.355       .  A
C1491      N1492   1.365       .  A
C1493      N1494   1.361       .  A
C1493      N1498   1.359       .  A
N1494      C1495   1.375       .  A
C1495      N1496   1.351       .  A
N1496      C1497   1.363       .  A
C1497      N1498   1.360       .  A
C1499      N1500   1.377       .  A
C1499      N1504   1.367       .  A
N1500      C1501   1.370       .  A
C1501      N1502   1.345       .  A
N1502      C1503   1.347       .  A
C1503      C1515   1.461       .  S
C1503      N1504   1.358       .  A
C1505      N1506   1.357       .  A
C1505      N1510   1.364       .  A
N1506      C1507   1.366       .  A
C1507      N1508   1.359       .  A
N1508      C1509   1.373       .  A
C1509      N1510   1.362       .  A
N1511      C1515   1.346       .  A
C1512      C1520   1.455       .  S
C1512      C1513   1.378       .  A
C1513      H1516   1.083       .  S
C1514      C1515   1.387       .  A
C1514      H1517   1.080       .  S
C1518      N1519   1.361       .  A
C1518      N1523   1.364       .  A
N1519      C1520   1.346       .  A
C1520      N1521   1.346       .  A
N1521      C1522   1.350       .  A
C1522      N1523   1.363       .  A
C1524      N1525   1.365       .  A
C1524      N1529   1.370       .  A
N1525      C1526   1.354       .  A
C1526      C1534   1.474       .  S
C1526      N1527   1.350       .  A
N1527      C1528   1.357       .  A
C1528      N1529   1.364       .  A
N1530      C1534   1.349       .  A
N1530      C1531   1.354       .  A
C1531      C1532   1.387       .  A
C1532      C1533   1.382       .  A
C1532      H1535   1.083       .  S
C1533      C1534   1.382       .  A
C1533      H1536   1.083       .  S
