geometry optimzed in LAMMPS
_audit_creation_date              2020-11-30 
_audit_creation_method            'lammps2cif' 
_symmetry_space_group_name_H-M    'P1' 
_symmetry_Int_Tables_number       1 
_symmetry_cell_setting            triclinic 
loop_ 
_symmetry_equiv_pos_as_xyz 
  x,y,z 
_cell_length_a                    62.75749007 
_cell_length_b                    62.80543856752653 
_cell_length_c                    62.78675146467296 
_cell_angle_alpha                 90.05264623927567 
_cell_angle_beta                  90.1153523414927 
_cell_angle_gamma                 90.17356481485696 
loop_ 
_atom_site_label 
_atom_site_type_symbol 
_atom_site_fract_x 
_atom_site_fract_y 
_atom_site_fract_z 
_atom_site_charge 
Zn1        Zn  0.51635405  0.52008288  0.00842745     1.49700
Zn2        Zn  0.48025325  0.51582840  0.97248244     1.49400
Zn3        Zn  0.51945630  0.48343576  0.97217765     1.49100
Zn4        Zn  0.48488738  0.48031629  0.00912154     1.49500
O5          O  0.50031716  0.49997976  0.99049014    -1.83200
O6          O  0.50868344  0.55082402  0.00151748    -0.73800
O7          O  0.48533411  0.51039089  0.94101335    -0.73600
O8          O  0.55000827  0.49060055  0.97889320    -0.73100
O9          O  0.48345358  0.54766055  0.97690335    -0.73800
O10         O  0.54781399  0.51609597  0.00349697    -0.73400
O11         O  0.51431501  0.49010929  0.94103537    -0.74000
O12         O  0.49091213  0.44973699  0.00183915    -0.73400
O13         O  0.45001124  0.50814987  0.98006548    -0.74100
O14         O  0.51563945  0.45156840  0.97663447    -0.73500
O15         O  0.45338696  0.48480624  0.00642331    -0.74000
O16         O  0.49253979  0.48461339  0.04002998    -0.73900
O17         O  0.51157833  0.51442727  0.04005949    -0.73700
C18         C  0.49523995  0.55919611  0.98876851     0.78100
C19         C  0.50013667  0.50069680  0.93112953     0.78600
C20         C  0.55870081  0.50371372  0.99173176     0.77500
C21         C  0.50367447  0.44075716  0.98895588     0.77900
C22         C  0.44186022  0.49614394  0.99425310     0.79100
C23         C  0.50267793  0.49908993  0.04999246     0.78100
Zn24       Zn  0.48569610  0.01853307  0.52061740     1.49700
Zn25       Zn  0.48347237  0.98353076  0.48389110     1.49400
Zn26       Zn  0.52121472  0.01836024  0.48424061     1.49100
Zn27       Zn  0.52017747  0.98162138  0.51962674     1.49500
O28         O  0.50270295  0.00044599  0.50201112    -1.83200
O29         O  0.45437265  0.01368938  0.51620806    -0.73800
O30         O  0.48862917  0.98988471  0.45274912    -0.73600
O31         O  0.51549093  0.04978644  0.48929291    -0.73100
O32         O  0.45243522  0.98958404  0.49068748    -0.73800
O33         O  0.49155551  0.04943639  0.51501371    -0.73400
O34         O  0.51586206  0.01241267  0.45308714    -0.74000
O35         O  0.55159786  0.98767052  0.51506184    -0.73400
O36         O  0.48852237  0.95193829  0.48804883    -0.74100
O37         O  0.55247094  0.01279154  0.49041544    -0.73500
O38         O  0.51433150  0.95081892  0.51197141    -0.74000
O39         O  0.51381600  0.98548064  0.55119518    -0.73900
O40         O  0.49114410  0.01233837  0.55155083    -0.73700
C41         C  0.44331557  0.00188080  0.50402522     0.78100
C42         C  0.50223396  0.00131957  0.44290352     0.78600
C43         C  0.50338181  0.05971674  0.50212453     0.77500
C44         C  0.56213128  0.00016527  0.50305354     0.77900
C45         C  0.50139729  0.94125857  0.49956581     0.79100
C46         C  0.50215731  0.99856924  0.56143363     0.78100
Zn47       Zn  0.01689380  0.48446064  0.48102918     1.49700
Zn48       Zn  0.01371913  0.51742885  0.51978358     1.49400
Zn49       Zn  0.97944548  0.51828859  0.48137280     1.49100
Zn50       Zn  0.97895436  0.48023662  0.51533579     1.49500
O51         O  0.99722700  0.50011364  0.49949553    -1.83200
O52         O  0.04736914  0.49165721  0.48764512    -0.73800
O53         O  0.00755228  0.54874010  0.51523056    -0.73600
O54         O  0.98486292  0.51332686  0.45000611    -0.73100
O55         O  0.04560259  0.51324046  0.51558776    -0.73800
O56         O  0.01194251  0.49066267  0.44990561    -0.73400
O57         O  0.98530919  0.54913567  0.48752019    -0.74000
O58         O  0.94763606  0.48519083  0.50843065    -0.73400
O59         O  0.00655050  0.50967924  0.55033265    -0.74100
O60         O  0.94826826  0.51298289  0.48647145    -0.73500
O61         O  0.98303715  0.48332072  0.54743656    -0.74000
O62         O  0.98648153  0.45002750  0.50774445    -0.73900
O63         O  0.01344839  0.45293580  0.48506862    -0.73700
C64         C  0.05642781  0.50279853  0.50199428     0.78100
C65         C  0.99650345  0.55874813  0.50146249     0.78600
C66         C  0.99857964  0.50224830  0.44006639     0.77500
C67         C  0.93808748  0.49904994  0.49708694     0.77900
C68         C  0.99431901  0.49586861  0.55881989     0.79100
C69         C  0.00053051  0.44161580  0.49584377     0.78100
Zn70       Zn  0.01679710  0.01695026  0.99103033     1.49700
Zn71       Zn  0.97936527  0.01648756  0.02608217     1.49400
Zn72       Zn  0.97952709  0.98134159  0.98854124     1.49100
Zn73       Zn  0.01512224  0.98040601  0.02546606     1.49500
O74         O  0.99754434  0.99881144  0.00767972    -1.83200
O75         O  0.01086685  0.04804757  0.99684083    -0.73800
O76         O  0.94816006  0.01253757  0.01850903    -0.73600
O77         O  0.98718143  0.98712554  0.95751680    -0.73100
O78         O  0.98591860  0.04775559  0.02162722    -0.73800
O79         O  0.01222637  0.01184187  0.95967155    -0.73400
O80         O  0.94792645  0.98856204  0.99255074    -0.74000
O81         O  0.00927866  0.94975010  0.01881002    -0.73400
O82         O  0.98364704  0.00947789  0.05755751    -0.74100
O83         O  0.98451102  0.94953032  0.99379942    -0.73500
O84         O  0.00904517  0.98514283  0.05650902    -0.74000
O85         O  0.04668845  0.98495651  0.02085393    -0.73900
O86         O  0.04821075  0.01088871  0.99720883    -0.73700
C87         C  0.99842833  0.05800404  0.00932158     0.78100
C88         C  0.93804276  0.00141430  0.00483652     0.78600
C89         C  0.00048314  0.99962618  0.94851615     0.77500
C90         C  0.99724526  0.93951856  0.00612897     0.77900
C91         C  0.99621935  0.99665543  0.06706874     0.79100
C92         C  0.05757643  0.99751290  0.00930046     0.78100
C93         C  0.75295103  0.49457816  0.01500888     0.04100
C94         C  0.76352247  0.50755502  0.00016403    -0.12100
C95         C  0.75188629  0.52002744  0.98568329     0.01600
C96         C  0.72956844  0.51871699  0.98553561    -0.10600
C97         C  0.71886334  0.50529475  0.99979788     0.04100
C98         C  0.73058648  0.49336661  0.01461388    -0.10000
H99         H  0.78077445  0.50789532  0.99988873     0.09700
H100        H  0.72049985  0.52816124  0.97428916     0.07200
H101        H  0.72233063  0.48302542  0.02568947     0.07000
C102        C  0.24761432  0.50471863  0.01820421     0.04100
C103        C  0.26985083  0.50667656  0.01714908    -0.12100
C104        C  0.28153206  0.49480377  0.00233772     0.01600
C105        C  0.27078902  0.48069058  0.98866919    -0.10600
C106        C  0.24863325  0.47809263  0.98999571     0.04100
C107        C  0.23705803  0.49046315  0.00453145    -0.10000
H108        H  0.27801481  0.51753269  0.02778293     0.09700
H109        H  0.27972106  0.47177236  0.97691924     0.07200
H110        H  0.21984937  0.48907364  0.00514473     0.07000
C111        C  0.98118533  0.49896446  0.24532092     0.04100
C112        C  0.99674655  0.51133807  0.23518960    -0.12100
C113        C  0.01147497  0.52308438  0.24723107     0.01600
C114        C  0.01104178  0.52193874  0.26952226    -0.10600
C115        C  0.99608361  0.50887669  0.27978352     0.04100
C116        C  0.98086042  0.49786220  0.26763498    -0.10000
H117        H  0.99758035  0.51168161  0.21795791     0.09700
H118        H  0.02245604  0.53100249  0.27884888     0.07200
H119        H  0.96891537  0.48819351  0.27551031     0.07000
C120        C  0.00781302  0.25104315  0.99176916     0.04100
C121        C  0.99522428  0.26373683  0.00516584    -0.12100
C122        C  0.98139531  0.25432756  0.02000638     0.01600
C123        C  0.98053775  0.23201952  0.02175659    -0.10600
C124        C  0.99310393  0.21916586  0.00847851     0.04100
C125        C  0.00685767  0.22877780  0.99369451    -0.10000
H126        H  0.99625715  0.28093117  0.00414806     0.09700
H127        H  0.96998811  0.22469275  0.03327573     0.07200
H128        H  0.01668469  0.21890477  0.98353138     0.07000
C129        C  0.01144883  0.47845641  0.75390969     0.04100
C130        C  0.01137525  0.47791885  0.73150697    -0.12100
C131        C  0.99698745  0.49041048  0.71981037     0.01600
C132        C  0.98351851  0.50454979  0.73067484    -0.10600
C133        C  0.98363323  0.50554424  0.75302424     0.04100
C134        C  0.99778745  0.49262368  0.76452610    -0.10000
H135        H  0.02246606  0.46777109  0.72312499     0.09700
H136        H  0.97290018  0.51479546  0.72173637     0.07200
H137        H  0.99816763  0.49357309  0.78175847     0.07000
Zn138      Zn  0.16827381  0.32014762  0.83379275     1.49700
Zn139      Zn  0.15654869  0.33345977  0.88091099     1.49400
Zn140      Zn  0.15934487  0.36865303  0.84321205     1.49100
Zn141      Zn  0.12055664  0.33465442  0.84388930     1.49500
O142        O  0.15097450  0.33938604  0.85059656    -1.83200
O143        O  0.18492029  0.30013726  0.85179156    -0.73800
O144        O  0.16869856  0.35965891  0.89524625    -0.73600
O145        O  0.18226348  0.36954336  0.82038591    -0.73100
O146        O  0.17789276  0.30927834  0.88507377    -0.73800
O147        O  0.18914438  0.33533063  0.81520861    -0.73400
O148        O  0.17147466  0.38354211  0.86917621    -0.74000
O149        O  0.10701801  0.36202446  0.83311317    -0.73400
O150        O  0.12944307  0.32428832  0.89575986    -0.74100
O151        O  0.13398375  0.38507460  0.83191935    -0.73500
O152        O  0.10489113  0.32388843  0.87011041    -0.74000
O153        O  0.11663649  0.31197295  0.82089299    -0.73900
O154        O  0.15014841  0.30234304  0.81511648    -0.73700
C155        C  0.18757306  0.29755318  0.87167928     0.78100
C156        C  0.17405579  0.37806096  0.88855982     0.78600
C157        C  0.19282087  0.35482163  0.81133036     0.77500
C158        C  0.11446824  0.38042372  0.82865507     0.77900
C159        C  0.11049089  0.32066035  0.88938444     0.79100
C160        C  0.13034639  0.30032427  0.81157331     0.78100
C161        C  0.98984653  0.74488593  0.98336471     0.04100
C162        C  0.98967679  0.76725310  0.98391094    -0.12100
C163        C  0.00284742  0.77843375  0.99813596     0.01600
C164        C  0.01685629  0.76715117  0.01140679    -0.10600
C165        C  0.01743346  0.74478429  0.01080276     0.04100
C166        C  0.00330010  0.73377242  0.99735215    -0.10000
H167        H  0.97906661  0.77597410  0.97345474     0.09700
H168        H  0.02703695  0.77576751  0.02241414     0.07200
H169        H  0.00280018  0.71655451  0.99784565     0.07000
Zn170      Zn  0.84115018  0.66087869  0.87142427     1.49700
Zn171      Zn  0.84011023  0.62470314  0.83411710     1.49400
Zn172      Zn  0.83149478  0.67332482  0.82395958     1.49100
Zn173      Zn  0.87869908  0.65882005  0.83644885     1.49500
O174        O  0.84800340  0.65419044  0.84162531    -1.83200
O175        O  0.82921346  0.63478226  0.88564601    -0.73800
O176        O  0.81730472  0.62355540  0.81064880    -0.73600
O177        O  0.81273740  0.69286919  0.84063899    -0.73100
O178        O  0.82848609  0.60979347  0.86039243    -0.73800
O179        O  0.81871873  0.68419125  0.87424127    -0.73400
O180        O  0.81250787  0.65781609  0.80382046    -0.74000
O181        O  0.88376439  0.68189388  0.81439987    -0.73400
O182        O  0.86597168  0.60857788  0.82328471    -0.74100
O183        O  0.85060045  0.69162760  0.80709104    -0.73500
O184        O  0.89279627  0.63168774  0.82613106    -0.74000
O185        O  0.89337413  0.66930631  0.86318632    -0.73900
O186        O  0.86749889  0.67087246  0.88729766    -0.73700
C187        C  0.82499393  0.61590309  0.87945453     0.78100
C188        C  0.80818441  0.63837451  0.80020511     0.78600
C189        C  0.80901482  0.69533205  0.86036419     0.77500
C190        C  0.87053909  0.69387584  0.80481209     0.77900
C191        C  0.88566096  0.61328060  0.82129066     0.79100
C192        C  0.88688904  0.67355963  0.88192802     0.78100
Zn193      Zn  0.86060793  0.37018766  0.13887651     1.49700
Zn194      Zn  0.84818170  0.32308672  0.15460342     1.49400
Zn195      Zn  0.84874010  0.36023191  0.18844809     1.49100
Zn196      Zn  0.81263077  0.35915484  0.15238627     1.49500
O197        O  0.84265441  0.35334564  0.15851979    -1.83200
O198        O  0.87986205  0.35051596  0.12103897    -0.73800
O199        O  0.85746468  0.30861759  0.18169944    -0.73600
O200        O  0.87040244  0.38395463  0.19000210    -0.73100
O201        O  0.87082869  0.31863686  0.13283087    -0.73800
O202        O  0.87909381  0.39036300  0.15628397    -0.73400
O203        O  0.85907484  0.33462822  0.20546297    -0.74000
O204        O  0.79712218  0.36893332  0.17865574    -0.73400
O205        O  0.82191251  0.30757093  0.14503923    -0.74100
O206        O  0.82203548  0.36947050  0.20356367    -0.73500
O207        O  0.79716857  0.33251716  0.14291825    -0.74000
O208        O  0.80950808  0.38159655  0.12972343    -0.73900
O209        O  0.84236137  0.38882954  0.11896662    -0.73700
C210        C  0.88200785  0.33025703  0.12065744     0.78100
C211        C  0.86108881  0.31503988  0.20056547     0.78600
C212        C  0.88110944  0.39424599  0.17612987     0.77500
C213        C  0.80272826  0.37185704  0.19794619     0.77900
C214        C  0.80279592  0.31315057  0.14128923     0.79100
C215        C  0.82224136  0.39166080  0.11759225     0.78100
Zn216      Zn  0.16198146  0.62166109  0.15655660     1.49700
Zn217      Zn  0.16566142  0.65982116  0.12177357     1.49400
Zn218      Zn  0.13001170  0.66164001  0.15834727     1.49100
Zn219      Zn  0.17867297  0.66718613  0.17034784     1.49500
O220        O  0.15901152  0.65244142  0.15152682    -1.83200
O221        O  0.17122104  0.60712043  0.12955852    -0.73800
O222        O  0.13914636  0.67122311  0.10652960    -0.73600
O223        O  0.11256730  0.63699632  0.16897842    -0.73100
O224        O  0.17619897  0.63348922  0.10638243    -0.73800
O225        O  0.13424385  0.60901877  0.16706727    -0.73400
O226        O  0.11529807  0.67343256  0.13251939    -0.74000
O227        O  0.16345487  0.68524076  0.19144360    -0.73400
O228        O  0.18911696  0.68250108  0.12022226    -0.74100
O229        O  0.12959233  0.68404718  0.18155683    -0.73500
O230        O  0.19745782  0.68695974  0.15432896    -0.74000
O231        O  0.19737918  0.64713017  0.18635264    -0.73900
O232        O  0.18493818  0.61490090  0.17860084    -0.73700
C233        C  0.17724686  0.61384715  0.11139390     0.78100
C234        C  0.12057664  0.67618029  0.11317452     0.78600
C235        C  0.11628353  0.61727187  0.17156368     0.77500
C236        C  0.14425931  0.69124062  0.19360982     0.77900
C237        C  0.20005090  0.69154108  0.13481405     0.79100
C238        C  0.19798518  0.62702537  0.18838690     0.78100
C239        C  0.51766915  0.24730337  0.00738308     0.04100
C240        C  0.51780502  0.26958926  0.00597274    -0.12100
C241        C  0.50333071  0.28008025  0.99254090     0.01600
C242        C  0.48925194  0.26804333  0.97993152    -0.10600
C243        C  0.48874197  0.24575202  0.98165817     0.04100
C244        C  0.50296914  0.23550282  0.99542337    -0.10000
H245        H  0.52903885  0.27873813  0.01543105     0.09700
H246        H  0.47860084  0.27603691  0.96896999     0.07200
H247        H  0.50261630  0.21830123  0.99681438     0.07000
C248        C  0.48001053  0.75404759  0.00887375     0.04100
C249        C  0.49356514  0.76534734  0.99521403    -0.12100
C250        C  0.50587739  0.75453248  0.98008472     0.01600
C251        C  0.50555587  0.73214049  0.97964208    -0.10600
C252        C  0.49241086  0.72054412  0.99363455     0.04100
C253        C  0.47911316  0.73174626  0.00768483    -0.10000
H254        H  0.49458074  0.78253025  0.99643930     0.09700
H255        H  0.51563962  0.72374071  0.96845392     0.07200
H256        H  0.46794378  0.72321551  0.01764999     0.07000
C257        C  0.48488549  0.99060676  0.24825615     0.04100
C258        C  0.49912271  0.00436913  0.23782751    -0.12100
C259        C  0.51251063  0.01788414  0.24964881     0.01600
C260        C  0.51263996  0.01660402  0.27191687    -0.10600
C261        C  0.49922515  0.00220728  0.28240873     0.04100
C262        C  0.48509451  0.98957670  0.27058663    -0.10000
H263        H  0.49992673  0.00453078  0.22060754     0.09700
H264        H  0.52328082  0.02672061  0.28107299     0.07200
H265        H  0.47442766  0.97873136  0.27877484     0.07000
C266        C  0.25264233  0.01433847  0.99073558     0.04100
C267        C  0.23018311  0.01319203  0.99073741    -0.12100
C268        C  0.21942168  0.99870892  0.00405064     0.01600
C269        C  0.23123697  0.98580468  0.01791587    -0.10600
C270        C  0.25357152  0.98674266  0.01819386     0.04100
C271        C  0.26418883  0.00053111  0.00410281    -0.10000
H272        H  0.22108568  0.02348435  0.98030401     0.09700
H273        H  0.22301001  0.97489190  0.02845946     0.07200
H274        H  0.28142728  0.00036698  0.00349193     0.07000
C275        C  0.74214869  0.98790394  0.98828569     0.04100
C276        C  0.76453255  0.98846901  0.98695453    -0.12100
C277        C  0.77643287  0.00332520  0.99885902     0.01600
C278        C  0.76567702  0.01702177  0.01289485    -0.10600
C279        C  0.74353211  0.01551002  0.01561362     0.04100
C280        C  0.73183616  0.00103617  0.00312475    -0.10000
H281        H  0.77260674  0.97712087  0.97684871     0.09700
H282        H  0.77463852  0.02876064  0.02188529     0.07200
H283        H  0.71474443  0.99984072  0.00517492     0.07000
Zn284      Zn  0.63644240  0.86291767  0.86300736     1.49700
Zn285      Zn  0.64754293  0.81372738  0.85154321     1.49400
Zn286      Zn  0.64799173  0.84899100  0.81503453     1.49100
Zn287      Zn  0.68400651  0.84881414  0.85115143     1.49500
O288        O  0.65386338  0.84368850  0.84526369    -1.83200
O289        O  0.61620198  0.84526122  0.88125200    -0.73800
O290        O  0.63915360  0.79761478  0.82497400    -0.73600
O291        O  0.62553362  0.87153522  0.81144267    -0.73100
O292        O  0.62362498  0.81177778  0.87260189    -0.73800
O293        O  0.61798078  0.88216437  0.84423505    -0.73400
O294        O  0.63824822  0.82235436  0.79973980    -0.74000
O295        O  0.69959001  0.85805348  0.82462458    -0.73400
O296        O  0.67323757  0.79795245  0.86304115    -0.74100
O297        O  0.67474158  0.85809082  0.79963503    -0.73500
O298        O  0.69880701  0.82222270  0.86126352    -0.74000
O299        O  0.68773278  0.87116050  0.87376652    -0.73900
O300        O  0.65528167  0.88158766  0.88245716    -0.73700
C301        C  0.61281485  0.82531113  0.88314263     0.78100
C302        C  0.63641562  0.80307116  0.80566164     0.78600
C303        C  0.61521927  0.88348444  0.82410623     0.77500
C304        C  0.69406207  0.86062326  0.80525331     0.77900
C305        C  0.69269613  0.80334608  0.86531302     0.79100
C306        C  0.67550580  0.88295256  0.88471633     0.78100
C307        C  0.47762091  0.00589835  0.75433203     0.04100
C308        C  0.49089917  0.99254597  0.76643260    -0.12100
C309        C  0.50356476  0.97711216  0.75646672     0.01600
C310        C  0.50337599  0.97540341  0.73418014    -0.10600
C311        C  0.48996369  0.98834370  0.72188015     0.04100
C312        C  0.47681781  0.00324150  0.73209224    -0.10000
H313        H  0.49161673  0.99435382  0.78358886     0.09700
H314        H  0.51395971  0.96425853  0.72637591     0.07200
H315        H  0.46623127  0.01299555  0.72264815     0.07000
Zn316      Zn  0.37368338  0.16017445  0.83739039     1.49700
Zn317      Zn  0.32623553  0.17463795  0.82985477     1.49400
Zn318      Zn  0.33585945  0.12531479  0.83953708     1.49100
Zn319      Zn  0.33939448  0.16006846  0.87678119     1.49500
O320        O  0.34392698  0.15496848  0.84605241    -1.83200
O321        O  0.37654691  0.18378854  0.81466255    -0.73800
O322        O  0.30686925  0.15851466  0.81050995    -0.73600
O323        O  0.36099386  0.10918158  0.82796480    -0.73100
O324        O  0.34318370  0.19429259  0.81102850    -0.73800
O325        O  0.38699542  0.13306226  0.82555664    -0.73400
O326        O  0.31303774  0.12427525  0.81667766    -0.74000
O327        O  0.32832389  0.13348226  0.89169804    -0.73400
O328        O  0.30789338  0.19239975  0.84891604    -0.74100
O329        O  0.32496454  0.10961402  0.86577299    -0.73500
O330        O  0.31668490  0.18284579  0.88182572    -0.74000
O331        O  0.36741763  0.16935294  0.89042520    -0.73900
O332        O  0.39036677  0.16927428  0.86338571    -0.73700
C333        C  0.36276738  0.19596496  0.80604164     0.78100
C334        C  0.30314488  0.13897386  0.80682937     0.78600
C335        C  0.37994792  0.11416430  0.82279059     0.77500
C336        C  0.32308651  0.11491499  0.88528109     0.77900
C337        C  0.30552850  0.19391055  0.86897517     0.79100
C338        C  0.38609420  0.17248509  0.88296537     0.78100
Zn339      Zn  0.37894270  0.83940990  0.16537093     1.49700
Zn340      Zn  0.34128579  0.87500667  0.16285819     1.49400
Zn341      Zn  0.34369740  0.83860109  0.12727901     1.49100
Zn342      Zn  0.33133328  0.82709586  0.17516147     1.49500
O343        O  0.34904297  0.84518019  0.15749008    -1.83200
O344        O  0.39302454  0.86704107  0.17428289    -0.73800
O345        O  0.33035473  0.88954592  0.13606981    -0.73600
O346        O  0.37124763  0.82959659  0.11316645    -0.73100
O347        O  0.36683039  0.89093513  0.17373935    -0.73800
O348        O  0.39472035  0.82734999  0.13983642    -0.73400
O349        O  0.33086489  0.86396131  0.11156409    -0.74000
O350        O  0.31581546  0.80566238  0.15784238    -0.73400
O351        O  0.31810251  0.87754032  0.18523817    -0.74100
O352        O  0.32303626  0.81372380  0.12420877    -0.73500
O353        O  0.30998618  0.84377782  0.19141157    -0.74000
O354        O  0.34789290  0.81144239  0.19719366    -0.73900
O355        O  0.38176743  0.81875558  0.19083327    -0.73700
C356        C  0.38615060  0.88588378  0.17728052     0.78100
C357        C  0.32659455  0.88298795  0.11720965     0.78600
C358        C  0.38969033  0.82489081  0.12028258     0.77500
C359        C  0.31354031  0.80228715  0.13801722     0.77900
C360        C  0.30699518  0.86349461  0.19474726     0.79100
C361        C  0.36743746  0.80952361  0.20193361     0.78100
Zn362      Zn  0.66617684  0.17771644  0.17429811     1.49700
Zn363      Zn  0.65988309  0.12916563  0.16235655     1.49400
Zn364      Zn  0.62066979  0.16262359  0.15886725     1.49100
Zn365      Zn  0.66012185  0.16470465  0.12580419     1.49500
O366        O  0.65152458  0.15837380  0.15514595    -1.83200
O367        O  0.68639920  0.16282832  0.19365290    -0.73800
O368        O  0.63464187  0.11386319  0.17545266    -0.73600
O369        O  0.61403395  0.18651133  0.17999221    -0.73100
O370        O  0.68460169  0.12904815  0.18361241    -0.73800
O371        O  0.64634652  0.19587062  0.19101042    -0.73400
O372        O  0.60719487  0.13577617  0.17052166    -0.74000
O373        O  0.63481691  0.17550664  0.10922349    -0.73400
O374        O  0.66984571  0.11299210  0.13602945    -0.74100
O375        O  0.60705684  0.17143848  0.13097561    -0.73500
O376        O  0.67149124  0.13829468  0.11135054    -0.74000
O377        O  0.68302537  0.18767585  0.12453286    -0.73900
O378        O  0.68449963  0.19754707  0.15835668    -0.73700
C379        C  0.69296326  0.14375002  0.19490687     0.78100
C380        C  0.61489755  0.11825838  0.17728516     0.78600
C381        C  0.62626492  0.19818080  0.19128394     0.77500
C382        C  0.61498120  0.17707063  0.11316352     0.77900
C383        C  0.67443251  0.11911195  0.11721028     0.79100
C384        C  0.69046914  0.19960028  0.13918619     0.78100
C385        C  0.51556572  0.48811889  0.24577198     0.04100
C386        C  0.50154857  0.50241973  0.25573340    -0.12100
C387        C  0.48924840  0.51654332  0.24346566     0.01600
C388        C  0.49082728  0.51605282  0.22114895    -0.10600
C389        C  0.50475963  0.50176311  0.21105550     0.04100
C390        C  0.51680163  0.48763112  0.22345403    -0.10000
H391        H  0.50002606  0.50241454  0.27277938     0.09700
H392        H  0.48118774  0.52670678  0.21166217     0.07200
H393        H  0.52687722  0.47609772  0.21579482     0.07000
C394        C  0.74456392  0.48405231  0.48334809     0.04100
C395        C  0.76695818  0.48471642  0.48427767    -0.12100
C396        C  0.77746092  0.49993645  0.49703212     0.01600
C397        C  0.76539867  0.51477556  0.50848675    -0.10600
C398        C  0.74307517  0.51404446  0.50793161     0.04100
C399        C  0.73272567  0.49898890  0.49500500    -0.10000
H400        H  0.77618919  0.47337372  0.47515215     0.09700
H401        H  0.77334427  0.52693368  0.51787008     0.07200
H402        H  0.71547137  0.49879178  0.49416397     0.07000
Zn403      Zn  0.61611140  0.33711873  0.33945839     1.49700
Zn404      Zn  0.65297181  0.37327538  0.33965564     1.49400
Zn405      Zn  0.65281651  0.33613165  0.37556814     1.49100
Zn406      Zn  0.66381033  0.32559544  0.32729575     1.49500
O407        O  0.64630314  0.34318947  0.34570785    -1.83200
O408        O  0.60164565  0.36324281  0.32753811    -0.73800
O409        O  0.66281657  0.38824220  0.36665050    -0.73600
O410        O  0.62625335  0.32458883  0.39037014    -0.73100
O411        O  0.62718195  0.38792639  0.32686418    -0.73800
O412        O  0.60065267  0.32681497  0.36580252    -0.73400
O413        O  0.66420349  0.36236709  0.39087980    -0.74000
O414        O  0.68319048  0.30687974  0.34401684    -0.73400
O415        O  0.67722231  0.37645407  0.31828112    -0.74100
O416        O  0.67606819  0.31359525  0.37782196    -0.73500
O417        O  0.68299063  0.34298617  0.30895931    -0.74000
O418        O  0.64624050  0.30678112  0.30856962    -0.73900
O419        O  0.61281063  0.31380374  0.31720983    -0.73700
C420        C  0.60809716  0.38195749  0.32306031     0.78100
C421        C  0.66724159  0.38169419  0.38536476     0.78600
C422        C  0.60695779  0.32187213  0.38445124     0.77500
C423        C  0.68671989  0.30371967  0.36369847     0.77900
C424        C  0.68726940  0.36270780  0.30731975     0.79100
C425        C  0.62636167  0.30350572  0.30625833     0.78100
C426        C  0.48418533  0.25399628  0.52128981     0.04100
C427        C  0.48456986  0.23170744  0.52202537    -0.12100
C428        C  0.49673442  0.22022407  0.50733321     0.01600
C429        C  0.50896960  0.23109295  0.49216000    -0.10600
C430        C  0.50882477  0.25341371  0.49136744     0.04100
C431        C  0.49606511  0.26481187  0.50574207    -0.10000
H432        H  0.47503344  0.22329792  0.53370394     0.09700
H433        H  0.51855499  0.22217599  0.48093668     0.07200
H434        H  0.49528423  0.28202194  0.50478187     0.07000
C435        C  0.47870574  0.74618290  0.48442762     0.04100
C436        C  0.47875964  0.76850071  0.48351081    -0.12100
C437        C  0.49214630  0.78035650  0.49695889     0.01600
C438        C  0.50594582  0.76973497  0.51095465    -0.10600
C439        C  0.50576906  0.74742056  0.51218463     0.04100
C440        C  0.49196916  0.73573511  0.49902129    -0.10000
H441        H  0.46848328  0.77661680  0.47226045     0.09700
H442        H  0.51693499  0.77883501  0.52073345     0.07200
H443        H  0.49169085  0.71851076  0.50003447     0.07000
Zn444      Zn  0.33694809  0.65167289  0.37300347     1.49700
Zn445      Zn  0.32722135  0.66783910  0.32588906     1.49400
Zn446      Zn  0.37460275  0.65652201  0.33768062     1.49100
Zn447      Zn  0.33913948  0.61899864  0.33367489     1.49500
O448        O  0.34463557  0.64857464  0.34267199    -1.83200
O449        O  0.31314196  0.67314446  0.37743517    -0.73800
O450        O  0.34439730  0.68869807  0.30876711    -0.73600
O451        O  0.38773610  0.66623712  0.36535801    -0.73100
O452        O  0.30767295  0.68444534  0.34443060    -0.73800
O453        O  0.36205984  0.66265559  0.38959238    -0.73400
O454        O  0.37797169  0.68143762  0.31687321    -0.74000
O455        O  0.36605190  0.60624826  0.32101825    -0.73400
O456        O  0.30863710  0.65181440  0.30573862    -0.74100
O457        O  0.39080602  0.63153714  0.32504426    -0.73500
O458        O  0.31586591  0.61775981  0.31109486    -0.74000
O459        O  0.32860567  0.60089649  0.35849069    -0.73900
O460        O  0.32706083  0.62368508  0.38563366    -0.73700
C461        C  0.30341327  0.68500778  0.36420645     0.78100
C462        C  0.36421376  0.69225427  0.30662341     0.78600
C463        C  0.38087834  0.66810279  0.38436890     0.77500
C464        C  0.38507513  0.61308606  0.31868101     0.77900
C465        C  0.30522230  0.63229276  0.30176077     0.79100
C466        C  0.32435749  0.60511521  0.37789318     0.78100
C467        C  0.25062649  0.48344925  0.51191367     0.04100
C468        C  0.22829736  0.48403736  0.51226479    -0.12100
C469        C  0.21700429  0.49566400  0.49693524     0.01600
C470        C  0.22822170  0.50709350  0.48135951    -0.10600
C471        C  0.25059807  0.50704038  0.48111366     0.04100
C472        C  0.26174889  0.49479530  0.49616059    -0.10000
H473        H  0.21971354  0.47553087  0.52458978     0.09700
H474        H  0.21953556  0.51630509  0.46963136     0.07200
H475        H  0.27901210  0.49454647  0.49596255     0.07000
C476        C  0.52013646  0.51820951  0.73670618     0.04100
C477        C  0.52037448  0.51849786  0.75909498    -0.12100
C478        C  0.50596576  0.50589973  0.77066267     0.01600
C479        C  0.49091397  0.49350134  0.75969966    -0.10600
C480        C  0.49042963  0.49323205  0.73738552     0.04100
C481        C  0.50515079  0.50551424  0.72590112    -0.10000
H482        H  0.53178551  0.52844462  0.76747820     0.09700
H483        H  0.47950824  0.48402873  0.76856221     0.07200
H484        H  0.50479856  0.50537885  0.70864692     0.07000
Zn485      Zn  0.33604869  0.37894392  0.66556800     1.49700
Zn486      Zn  0.32946944  0.32951129  0.67673754     1.49400
Zn487      Zn  0.33729419  0.34275824  0.62885764     1.49100
Zn488      Zn  0.37519086  0.34527444  0.66415384     1.49500
O489        O  0.34461468  0.34943362  0.65868790    -1.83200
O490        O  0.31238963  0.37928654  0.68822050    -0.73800
O491        O  0.31252018  0.30852746  0.65998306    -0.73600
O492        O  0.32463928  0.36841512  0.61399192    -0.73100
O493        O  0.30884749  0.34473504  0.69483219    -0.73800
O494        O  0.32411511  0.39354566  0.63906721    -0.73400
O495        O  0.31591306  0.31847386  0.62639072    -0.74000
O496        O  0.38927482  0.33373502  0.63777833    -0.73400
O497        O  0.34855942  0.31247789  0.69553204    -0.74100
O498        O  0.36349230  0.33270305  0.61328551    -0.73500
O499        O  0.38120056  0.32357285  0.68765863    -0.74000
O500        O  0.38889357  0.37310873  0.67270176    -0.73900
O501        O  0.36189784  0.39594918  0.67591911    -0.73700
C502        C  0.30313811  0.36386265  0.69773476     0.78100
C503        C  0.30825706  0.30597466  0.64040139     0.78600
C504        C  0.32025848  0.38725234  0.62011246     0.77500
C505        C  0.38267003  0.32944355  0.61906745     0.77900
C506        C  0.36859556  0.31155652  0.69807698     0.79100
C507        C  0.38170113  0.39150245  0.67726860     0.78100
Zn508      Zn  0.64069215  0.64426289  0.62705116     1.49700
Zn509      Zn  0.68930623  0.65640390  0.63806457     1.49400
Zn510      Zn  0.65316339  0.69234492  0.63899145     1.49100
Zn511      Zn  0.65433975  0.65577364  0.67467352     1.49500
O512        O  0.65935907  0.66223770  0.64462756    -1.83200
O513        O  0.65793244  0.62625337  0.60653380    -0.73800
O514        O  0.70490414  0.68312588  0.62899950    -0.73600
O515        O  0.62995142  0.69564659  0.61672629    -0.73100
O516        O  0.69125583  0.63490221  0.61455232    -0.73800
O517        O  0.62064918  0.66237083  0.60951556    -0.73400
O518        O  0.67986800  0.70800209  0.62971221    -0.74000
O519        O  0.64376456  0.68161278  0.69022566    -0.73400
O520        O  0.70539969  0.64515260  0.66368202    -0.74100
O521        O  0.64279498  0.70700295  0.66572422    -0.73500
O522        O  0.68122712  0.64613187  0.68931046    -0.74000
O523        O  0.63244417  0.63264349  0.67836520    -0.73900
O524        O  0.62276624  0.62462152  0.64551736    -0.73700
C525        C  0.67792204  0.62443172  0.60340100     0.78100
C526        C  0.69918234  0.70246038  0.62696779     0.78600
C527        C  0.61811436  0.68230054  0.60691241     0.77500
C528        C  0.63991277  0.70071743  0.68479853     0.77900
C529        C  0.70011064  0.64239858  0.68306726     0.79100
C530        C  0.62113217  0.62169637  0.66550990     0.78100
C531        C  0.24938159  0.97944906  0.49517771     0.04100
C532        C  0.27168418  0.98058508  0.49513425    -0.12100
C533        C  0.28230726  0.99605894  0.50724713     0.01600
C534        C  0.27050610  0.01065139  0.51927772    -0.10600
C535        C  0.24810812  0.00995393  0.51920174     0.04100
C536        C  0.23766778  0.99394446  0.50747582    -0.10000
H537        H  0.28077627  0.96968875  0.48534813     0.09700
H538        H  0.27877138  0.02281519  0.52837888     0.07200
H539        H  0.22047097  0.99268413  0.50785675     0.07000
C540        C  0.75643108  0.99146815  0.52470338     0.04100
C541        C  0.76843333  0.00513967  0.51164512    -0.12100
C542        C  0.75820974  0.01919715  0.49758852     0.01600
C543        C  0.73587781  0.01982674  0.49693551    -0.10600
C544        C  0.72364904  0.00555504  0.50903890     0.04100
C545        C  0.73405049  0.99153667  0.52311577    -0.10000
H546        H  0.78568421  0.00480518  0.51239251     0.09700
H547        H  0.72805328  0.03131868  0.48675549     0.07200
H548        H  0.72475839  0.98064265  0.53275415     0.07000
C549        C  0.99709389  0.24825489  0.47967794     0.04100
C550        C  0.99799670  0.27055633  0.47903528    -0.12100
C551        C  0.01190471  0.28179532  0.49251361     0.01600
C552        C  0.02424696  0.27059981  0.50737866    -0.10600
C553        C  0.02277754  0.24837756  0.50874544     0.04100
C554        C  0.00932427  0.23723296  0.49476428    -0.10000
H555        H  0.98768224  0.27913781  0.46819450     0.09700
H556        H  0.03473775  0.27920630  0.51812330     0.07200
H557        H  0.00822224  0.22004171  0.49578187     0.07000
C558        C  0.01380754  0.98516845  0.26282467     0.04100
C559        C  0.99981509  0.99934710  0.27298721    -0.12100
C560        C  0.98604388  0.01222027  0.26091670     0.01600
C561        C  0.98669591  0.01111478  0.23858757    -0.10600
C562        C  0.00045150  0.99687427  0.22827111     0.04100
C563        C  0.01372344  0.98369032  0.24049107    -0.10000
H564        H  0.99963742  0.00035159  0.29021605     0.09700
H565        H  0.97645733  0.02135021  0.22920784     0.07200
H566        H  0.02414603  0.97242632  0.23264547     0.07000
C567        C  0.99749796  0.75205892  0.52378528     0.04100
C568        C  0.99423959  0.73006112  0.52154845    -0.12100
C569        C  0.00560847  0.71849464  0.50626708     0.01600
C570        C  0.01991838  0.72907893  0.49278879    -0.10600
C571        C  0.02319314  0.75109897  0.49479389     0.04100
C572        C  0.01187465  0.76251635  0.51024831    -0.10000
H573        H  0.98264451  0.72196469  0.53144493     0.09700
H574        H  0.02825561  0.72021210  0.48058398     0.07200
H575        H  0.01403777  0.77960338  0.51154582     0.07000
Zn576      Zn  0.15200686  0.84965522  0.31831970     1.49700
Zn577      Zn  0.15359902  0.81275119  0.35352661     1.49400
Zn578      Zn  0.18886483  0.84894160  0.35342177     1.49100
Zn579      Zn  0.14088848  0.86033606  0.36707242     1.49500
O580        O  0.15871374  0.84297971  0.34812171    -1.83200
O581        O  0.14317120  0.82315928  0.30205703    -0.73800
O582        O  0.18018116  0.79754278  0.36349129    -0.73600
O583        O  0.20318412  0.86086235  0.32742798    -0.73100
O584        O  0.14488019  0.79778829  0.32649423    -0.73800
O585        O  0.17781801  0.86098458  0.30295998    -0.73400
O586        O  0.20504257  0.82251196  0.36152818    -0.74000
O587        O  0.15965309  0.87826849  0.38654558    -0.73400
O588        O  0.13076455  0.80879491  0.37564297    -0.74100
O589        O  0.19250492  0.86992581  0.37711212    -0.73500
O590        O  0.12172383  0.84144188  0.38557062    -0.74000
O591        O  0.12223219  0.88054437  0.34976867    -0.73900
O592        O  0.12922034  0.87223281  0.31629999    -0.73700
C593        C  0.14162058  0.80362590  0.30738201     0.78100
C594        C  0.19958910  0.80333381  0.36502039     0.78600
C595        C  0.19701489  0.86445463  0.30844159     0.77500
C596        C  0.17972519  0.88036865  0.38883734     0.77900
C597        C  0.11953100  0.82125413  0.38696483     0.79100
C598        C  0.11917568  0.88345523  0.32990877     0.78100
Zn599      Zn  0.86249384  0.13911472  0.36746290     1.49700
Zn600      Zn  0.81472305  0.15305378  0.35461074     1.49400
Zn601      Zn  0.85127723  0.18830997  0.35632275     1.49100
Zn602      Zn  0.85208125  0.15315097  0.31960110     1.49500
O603        O  0.84514940  0.15833310  0.34960983    -1.83200
O604        O  0.84333170  0.12154126  0.38745455    -0.73800
O605        O  0.79966411  0.17970441  0.36523228    -0.73600
O606        O  0.87571554  0.19011679  0.37689123    -0.73100
O607        O  0.81082731  0.13025189  0.37703821    -0.73800
O608        O  0.88370775  0.15662796  0.38492455    -0.73400
O609        O  0.82540968  0.20377190  0.36808235    -0.74000
O610        O  0.86169875  0.18009433  0.30488145    -0.73400
O611        O  0.79984137  0.14434180  0.32712795    -0.74100
O612        O  0.85989426  0.20482591  0.33003532    -0.73500
O613        O  0.82585174  0.14419949  0.30335274    -0.74000
O614        O  0.87471552  0.13041111  0.31621920    -0.73900
O615        O  0.88045680  0.11900715  0.34899366    -0.73700
C616        C  0.82309189  0.11956898  0.38912568     0.78100
C617        C  0.80586279  0.19847929  0.36989079     0.78600
C618        C  0.88718322  0.17657622  0.38671906     0.77500
C619        C  0.86336166  0.19942026  0.31082830     0.77900
C620        C  0.80629149  0.14180167  0.30802362     0.79100
C621        C  0.88426133  0.11790236  0.32906877     0.78100
C622        C  0.02237827  0.01390444  0.75431964     0.04100
C623        C  0.00828721  0.00116287  0.74248295    -0.12100
C624        C  0.99346397  0.98799709  0.75277684     0.01600
C625        C  0.99334087  0.98700794  0.77510947    -0.10600
C626        C  0.00776077  0.99918864  0.78716203     0.04100
C627        C  0.02194891  0.01300670  0.77668512    -0.10000
H628        H  0.00888862  0.00152490  0.72523877     0.09700
H629        H  0.98187708  0.97686419  0.78311014     0.07200
H630        H  0.03256846  0.02306732  0.78591427     0.07000
Zn631      Zn  0.84637674  0.87523503  0.66592222     1.49700
Zn632      Zn  0.83670308  0.82574220  0.67220883     1.49400
Zn633      Zn  0.84951018  0.84196975  0.62635223     1.49100
Zn634      Zn  0.88418596  0.84093326  0.66478509     1.49500
O635        O  0.85425405  0.84620607  0.65713414    -1.83200
O636        O  0.82236529  0.87461136  0.68793132    -0.73800
O637        O  0.82025399  0.80687185  0.65252957    -0.73600
O638        O  0.83842886  0.86924393  0.61293298    -0.73100
O639        O  0.81580360  0.84015114  0.69124729    -0.73800
O640        O  0.83529367  0.89165861  0.64033967    -0.73400
O641        O  0.82757913  0.81861584  0.62008229    -0.74000
O642        O  0.90037085  0.83150967  0.63911996    -0.73400
O643        O  0.85422213  0.80640352  0.68996788    -0.74100
O644        O  0.87686617  0.83210804  0.61249259    -0.73500
O645        O  0.88760465  0.81689862  0.68608132    -0.74000
O646        O  0.89825841  0.86743284  0.67641248    -0.73900
O647        O  0.87208548  0.89113182  0.67817923    -0.73700
C648        C  0.81171540  0.85937307  0.69613070     0.78100
C649        C  0.81798266  0.80573527  0.63247572     0.78600
C650        C  0.83293860  0.88721206  0.62064697     0.77500
C651        C  0.89549539  0.82840661  0.61970993     0.77900
C652        C  0.87392451  0.80431796  0.69414392     0.79100
C653        C  0.89159182  0.88603240  0.68086935     0.78100
Zn654      Zn  0.17474058  0.17383173  0.67154877     1.49700
Zn655      Zn  0.12687720  0.16234731  0.66100690     1.49400
Zn656      Zn  0.16309284  0.16224350  0.62405661     1.49100
Zn657      Zn  0.16281598  0.12592704  0.66009948     1.49500
O658        O  0.15667747  0.15594151  0.65403338    -1.83200
O659        O  0.15824967  0.19141742  0.69222591    -0.73800
O660        O  0.11147131  0.17275258  0.63465279    -0.73600
O661        O  0.18556175  0.18552805  0.62046008    -0.73100
O662        O  0.12463843  0.18558617  0.68335461    -0.73800
O663        O  0.19160668  0.19405495  0.65418185    -0.73400
O664        O  0.13654823  0.17246636  0.60953303    -0.74000
O665        O  0.17092443  0.11041613  0.63313131    -0.73400
O666        O  0.11207009  0.13630537  0.67332948    -0.74100
O667        O  0.17327571  0.13595398  0.60879555    -0.73500
O668        O  0.13734620  0.11144822  0.67358615    -0.74000
O669        O  0.18794892  0.12297183  0.68020464    -0.73900
O670        O  0.19581892  0.15668308  0.68743394    -0.73700
C671        C  0.13850133  0.19513170  0.69470507     0.78100
C672        C  0.11753241  0.17599066  0.61554946     0.78600
C673        C  0.19475080  0.19701420  0.63447553     0.77500
C674        C  0.17515917  0.11652017  0.61427300     0.77900
C675        C  0.11844433  0.11754605  0.67768330     0.79100
C676        C  0.19952007  0.13694127  0.68936586     0.78100
C677        C  0.07113759  0.03968269  0.72896888    -0.10900
C678        C  0.06225688  0.05838947  0.72061872     0.11700
C679        C  0.04008718  0.06205152  0.72264274    -0.02700
C680        C  0.02768059  0.04725064  0.73406077    -0.05500
C681        C  0.03671570  0.02893501  0.74307603    -0.16200
C682        C  0.05867214  0.02477431  0.74018947     0.02700
C683        C  0.07665998  0.07386693  0.70988435     0.12600
C684        C  0.02959848  0.08138198  0.71262405     0.63300
H685        H  0.01073488  0.04977889  0.73599558     0.12700
C686        C  0.06873198  0.00452557  0.74863774     0.55400
H687        H  0.08802189  0.03698467  0.72677047     0.08500
C688        C  0.08887049  0.08887156  0.72161144    -0.05400
C689        C  0.10208215  0.10318330  0.71045564    -0.06100
C690        C  0.10369098  0.10253935  0.68819515    -0.15700
C691        C  0.09181471  0.08734200  0.67651103    -0.01300
C692        C  0.07844099  0.07313666  0.68760767    -0.08800
C693        C  0.08817520  0.08947209  0.74579670     0.65500
H694        H  0.11155995  0.11481889  0.71905230     0.10900
C695        C  0.09334070  0.08635956  0.65243394     0.63900
H696        H  0.06924055  0.06130136  0.67899035     0.08300
F697        F  0.05789028  0.98698741  0.74076700    -0.19200
F698        F  0.06783401  0.00435665  0.77062759    -0.15400
F699        F  0.08987997  0.00278760  0.74266428    -0.18900
F700        F  0.03232802  0.08086126  0.69079076    -0.22300
F701        F  0.03863533  0.09984143  0.72059347    -0.23800
F702        F  0.00793320  0.08198341  0.71669577    -0.17800
F703        F  0.11412183  0.08214832  0.64653140    -0.20200
F704        F  0.08720037  0.10567452  0.64384964    -0.21400
F705        F  0.08038658  0.07060176  0.64396190    -0.18600
F706        F  0.10057765  0.10580290  0.75400867    -0.18700
F707        F  0.09573883  0.07048797  0.75392319    -0.22500
F708        F  0.06748836  0.09245885  0.75267031    -0.24100
C709        C  0.94795619  0.96858177  0.71737693    -0.10900
C710        C  0.95066800  0.94645120  0.71869162     0.11700
C711        C  0.96798392  0.93808135  0.73054929    -0.02700
C712        C  0.98176988  0.95229184  0.74111831    -0.05500
C713        C  0.97869859  0.97436991  0.74030094    -0.16200
C714        C  0.96140648  0.98277341  0.72847287     0.02700
C715        C  0.93462612  0.93231909  0.70829720     0.12600
C716        C  0.97178381  0.91425584  0.73225848     0.63300
H717        H  0.99510208  0.94627956  0.75027767     0.12700
C718        C  0.95652650  0.00645142  0.72848164     0.55400
H719        H  0.93482811  0.97461941  0.70795966     0.08500
C720        C  0.91418012  0.92881418  0.71721760    -0.05400
C721        C  0.90043006  0.91395575  0.70742763    -0.06100
C722        C  0.90677207  0.90204631  0.68961176    -0.15700
C723        C  0.92720095  0.90577312  0.68059701    -0.01300
C724        C  0.94050506  0.92136256  0.68979353    -0.08800
C725        C  0.90709225  0.94039537  0.73723101     0.65500
H726        H  0.88474368  0.91106081  0.71401044     0.10900
C727        C  0.93522613  0.89311167  0.66167091     0.63900
H728        H  0.95607761  0.92456738  0.68308951     0.08300
F729        F  0.95449638  0.01359173  0.74922734    -0.19200
F730        F  0.93771640  0.01089355  0.71784012    -0.15400
F731        F  0.97272209  0.01759279  0.71858513    -0.18900
F732        F  0.97732674  0.90614900  0.71257359    -0.22300
F733        F  0.95353095  0.90414729  0.73935658    -0.23800
F734        F  0.98809179  0.90958456  0.74636778    -0.17800
F735        F  0.92026684  0.89327963  0.64546227    -0.20200
F736        F  0.93904663  0.87239193  0.66797565    -0.21400
F737        F  0.95405432  0.90135819  0.65364488    -0.18600
F738        F  0.88751350  0.93314965  0.74435395    -0.18700
F739        F  0.90529299  0.96193231  0.73315476    -0.22500
F740        F  0.92179291  0.93731672  0.75337024    -0.24100
C741        C  0.07177930  0.77210166  0.46525314    -0.10900
C742        C  0.06210028  0.78506178  0.44983782     0.11700
C743        C  0.03960332  0.78678717  0.44919580    -0.02700
C744        C  0.02751340  0.77559709  0.46438140    -0.05500
C745        C  0.03720034  0.76256989  0.47971185    -0.16200
C746        C  0.05967640  0.76091319  0.48044005     0.02700
C747        C  0.07600548  0.79538942  0.43370829     0.12600
C748        C  0.02840782  0.79999962  0.43231306     0.63300
H749        H  0.01028778  0.77658756  0.46419980     0.12700
C750        C  0.07079515  0.74788786  0.49751145     0.55400
H751        H  0.08897630  0.77077081  0.46519013     0.08500
C752        C  0.08724178  0.81453413  0.43780172    -0.05400
C753        C  0.10081369  0.82273500  0.42188852    -0.06100
C754        C  0.10397111  0.81204245  0.40242780    -0.15700
C755        C  0.09257394  0.79277755  0.39847712    -0.01300
C756        C  0.07883479  0.78485037  0.41428912    -0.08800
C757        C  0.08522797  0.82594322  0.45905421     0.65500
H758        H  0.10962142  0.83729176  0.42483066     0.10900
C759        C  0.09441609  0.78065572  0.37761571     0.63900
H760        H  0.07033836  0.77002023  0.41178813     0.08300
F761        F  0.09274632  0.74964656  0.49619013    -0.19200
F762        F  0.06553047  0.72661394  0.49540534    -0.15400
F763        F  0.06461376  0.75494508  0.51743243    -0.18900
F764        F  0.03235117  0.79155425  0.41238225    -0.22300
F765        F  0.03571881  0.82076064  0.43291536    -0.23800
F766        F  0.00655525  0.80034349  0.43530604    -0.17800
F767        F  0.07935198  0.76457633  0.37597819    -0.20200
F768        F  0.11431180  0.77137738  0.37612647    -0.21400
F769        F  0.09131267  0.79443166  0.36073879    -0.18600
F770        F  0.09710594  0.84454362  0.45959786    -0.18700
F771        F  0.09237870  0.81289848  0.47526383    -0.22500
F772        F  0.06418973  0.83113344  0.46282226    -0.24100
C773        C  0.97213116  0.77396736  0.57422165    -0.10900
C774        C  0.95704361  0.78782930  0.56542183     0.11700
C775        C  0.95656047  0.79139788  0.54321017    -0.02700
C776        C  0.97005463  0.77930227  0.53017040    -0.05500
C777        C  0.98441587  0.76454973  0.53882170    -0.16200
C778        C  0.98619298  0.76239421  0.56123107     0.02700
C779        C  0.94135275  0.79788668  0.57973620     0.12600
C780        C  0.94211087  0.80816965  0.53348920     0.63300
H781        H  0.96948949  0.78121350  0.51303108     0.12700
C782        C  0.00324863  0.74858074  0.57137319     0.55400
H783        H  0.97254239  0.77207155  0.59136715     0.08500
C784        C  0.92186428  0.78766459  0.58470149    -0.05400
C785        C  0.90697503  0.79861987  0.59722178    -0.06100
C786        C  0.91150338  0.81883605  0.60558040    -0.15700
C787        C  0.93135268  0.82868302  0.60131818    -0.01300
C788        C  0.94596041  0.81805735  0.58814160    -0.08800
C789        C  0.91709943  0.76513365  0.57717068     0.65500
H790        H  0.89187362  0.79121023  0.60115510     0.10900
C791        C  0.93698987  0.85024232  0.61064419     0.63900
H792        H  0.96117091  0.82531675  0.58436994     0.08300
F793        F  0.00372274  0.75090025  0.59330405    -0.19200
F794        F  0.02304123  0.75431615  0.56355771    -0.15400
F795        F  0.99948901  0.72736872  0.56689599    -0.18900
F796        F  0.94781178  0.82801803  0.54120334    -0.22300
F797        F  0.92108664  0.80416504  0.53868216    -0.23800
F798        F  0.94367947  0.80864345  0.51150953    -0.17800
F799        F  0.93921477  0.84839822  0.63244318    -0.20200
F800        F  0.92105770  0.86472590  0.60609307    -0.21400
F801        F  0.95593330  0.85810021  0.60252598    -0.18600
F802        F  0.89712490  0.75830621  0.58358359    -0.18700
F803        F  0.93202803  0.75130999  0.58554544    -0.22500
F804        F  0.91785255  0.76409495  0.55519888    -0.24100
C805        C  0.93588256  0.03844052  0.28273530    -0.10900
C806        C  0.94410620  0.05770010  0.29066977     0.11700
C807        C  0.96638076  0.06151109  0.28980592    -0.02700
C808        C  0.97958928  0.04620615  0.28006429    -0.05500
C809        C  0.97124257  0.02726979  0.27154922    -0.16200
C810        C  0.94912132  0.02306611  0.27318482     0.02700
C811        C  0.92897138  0.07330642  0.30025737     0.12600
C812        C  0.97613152  0.08160145  0.29920428     0.63300
H813        H  0.99660003  0.04892028  0.27890501     0.12700
C814        C  0.93969845  0.00221052  0.26526180     0.55400
H815        H  0.91890441  0.03560864  0.28402900     0.08500
C816        C  0.91697241  0.08757025  0.28767350    -0.05400
C817        C  0.90277254  0.10164154  0.29782457    -0.06100
C818        C  0.89998916  0.10203826  0.32016612    -0.15700
C819        C  0.91227259  0.08757062  0.33274527    -0.01300
C820        C  0.92628086  0.07333794  0.32239906    -0.08800
C821        C  0.91898204  0.08775152  0.26353914     0.65500
H822        H  0.89356989  0.11244642  0.28809903     0.10900
C823        C  0.91107826  0.08694458  0.35692200     0.63900
H824        H  0.93547949  0.06201333  0.33155593     0.08300
F825        F  0.94215063  0.00061048  0.24344907    -0.19200
F826        F  0.91817503  0.00060937  0.26978122    -0.15400
F827        F  0.94997279  0.98533721  0.27496680    -0.18900
F828        F  0.97209936  0.08244745  0.32081730    -0.22300
F829        F  0.96749046  0.09937606  0.28957724    -0.23800
F830        F  0.99799824  0.08228353  0.29639007    -0.17800
F831        F  0.92480957  0.07201934  0.36554911    -0.20200
F832        F  0.89065448  0.08160909  0.36324883    -0.21400
F833        F  0.91670581  0.10659356  0.36520793    -0.18600
F834        F  0.90682769  0.10366230  0.25435193    -0.18700
F835        F  0.91218600  0.06845712  0.25534591    -0.22500
F836        F  0.93995653  0.09108670  0.25773193    -0.24100
C837        C  0.06355290  0.96472012  0.29075791    -0.10900
C838        C  0.05755365  0.94368565  0.29530147     0.11700
C839        C  0.03634589  0.93697159  0.29130078    -0.02700
C840        C  0.02234593  0.95104738  0.28083580    -0.05500
C841        C  0.02868955  0.97177186  0.27535808    -0.16200
C842        C  0.04929568  0.97905702  0.28108456     0.02700
C843        C  0.07393370  0.92894087  0.30398710     0.12600
C844        C  0.02851537  0.91524530  0.29853172     0.63300
H845        H  0.00631936  0.94599993  0.27680675     0.12700
C846        C  0.05610089  0.00187213  0.27693238     0.55400
H847        H  0.07964889  0.96969747  0.29459487     0.08500
C848        C  0.08690384  0.91652188  0.29048981    -0.05400
C849        C  0.10114704  0.90191977  0.29971527    -0.06100
C850        C  0.10373072  0.89999645  0.32199046    -0.15700
C851        C  0.09188850  0.91401809  0.33543663    -0.01300
C852        C  0.07686738  0.92788325  0.32606759    -0.08800
C853        C  0.08604845  0.91910291  0.26641282     0.65500
H854        H  0.11057897  0.89196736  0.28931870     0.10900
C855        C  0.09511483  0.91500289  0.35943035     0.63900
H856        H  0.06719781  0.93818455  0.33592414     0.08300
F857        F  0.07661543  0.00583839  0.28407724    -0.19200
F858        F  0.04250636  0.01564052  0.28738597    -0.15400
F859        F  0.05540801  0.00604843  0.25535442    -0.18900
F860        F  0.03040367  0.91375183  0.32042527    -0.22300
F861        F  0.04043494  0.89929165  0.28924206    -0.23800
F862        F  0.00735214  0.91190435  0.29320389    -0.17800
F863        F  0.11625244  0.91946640  0.36396307    -0.20200
F864        F  0.08930823  0.89583870  0.36859328    -0.21400
F865        F  0.08293987  0.93079883  0.36878016    -0.18600
F866        F  0.10014071  0.90563892  0.25616681    -0.18700
F867        F  0.09136387  0.93979463  0.26105991    -0.22500
F868        F  0.06580315  0.91469214  0.25890636    -0.24100
C869        C  0.04064150  0.21862047  0.55825820    -0.10900
C870        C  0.06237720  0.21588994  0.55396119     0.11700
C871        C  0.07102104  0.22345256  0.53453695    -0.02700
C872        C  0.05743763  0.23379725  0.52005253    -0.05500
C873        C  0.03579648  0.23681726  0.52453691    -0.16200
C874        C  0.02719767  0.22942608  0.54399597     0.02700
C875        C  0.07581063  0.20559128  0.57043785     0.12600
C876        C  0.09447194  0.22078332  0.52922533     0.63300
H877        H  0.06359245  0.23971287  0.50506871     0.12700
C878        C  0.00414529  0.23359007  0.54990636     0.55400
H879        H  0.03440277  0.21254676  0.57313894     0.08500
C880        C  0.08258147  0.21670168  0.58891950    -0.05400
C881        C  0.09562459  0.20608774  0.60367934    -0.06100
C882        C  0.10246480  0.18517430  0.60013842    -0.15700
C883        C  0.09572730  0.17405009  0.58171034    -0.01300
C884        C  0.08201356  0.18437337  0.56732043    -0.08800
C885        C  0.07636099  0.23973832  0.59286443     0.65500
H886        H  0.10106988  0.21423111  0.61791416     0.10900
C887        C  0.10295702  0.15141299  0.57739708     0.63900
H888        H  0.07636627  0.17613053  0.55323009     0.08300
F889        F  0.00028654  0.25526201  0.54959840    -0.19200
F890        F  0.99936176  0.22609422  0.57007694    -0.15400
F891        F  0.99073034  0.22359549  0.53553670    -0.18900
F892        F  0.09918646  0.19941574  0.52705215    -0.22300
F893        F  0.10693276  0.22938663  0.54527109    -0.23800
F894        F  0.09980786  0.23086878  0.51036607    -0.17800
F895        F  0.09331468  0.14296572  0.55941651    -0.20200
F896        F  0.09788012  0.13857359  0.59455386    -0.21400
F897        F  0.12475635  0.15106955  0.57427427    -0.18600
F898        F  0.08660695  0.24812637  0.61054367    -0.18700
F899        F  0.05465938  0.24108150  0.59625186    -0.22500
F900        F  0.08175413  0.25210909  0.57547207    -0.24100
C901        C  0.97489561  0.21380788  0.43487359    -0.10900
C902        C  0.95292588  0.21577125  0.43842854     0.11700
C903        C  0.94549451  0.22841827  0.45556161    -0.02700
C904        C  0.96048921  0.23858297  0.46880342    -0.05500
C905        C  0.98243880  0.23664396  0.46524890    -0.16200
C906        C  0.98987984  0.22447540  0.44779248     0.02700
C907        C  0.93787915  0.20462142  0.42389182     0.12600
C908        C  0.92181993  0.23129998  0.45968428     0.63300
H909        H  0.95521452  0.24821733  0.48210078     0.12700
C910        C  0.01343888  0.22348118  0.44241245     0.55400
H911        H  0.98018098  0.20403681  0.42168682     0.08500
C912        C  0.93189075  0.21335955  0.40403522    -0.05400
C913        C  0.91559346  0.20331515  0.39235822    -0.06100
C914        C  0.90537688  0.18472550  0.39967807    -0.15700
C915        C  0.91236016  0.17527629  0.41902854    -0.01300
C916        C  0.92864638  0.18546466  0.43075245    -0.08800
C917        C  0.94256606  0.23326942  0.39529256     0.65500
H918        H  0.91060850  0.21004394  0.37728186     0.10900
C919        C  0.90228316  0.15510035  0.42779615     0.63900
H920        H  0.93395858  0.17889871  0.44579080     0.08300
F921        F  0.01704631  0.21246512  0.42366292    -0.19200
F922        F  0.02445856  0.21334077  0.45852721    -0.15400
F923        F  0.02141599  0.24389604  0.43998472    -0.18900
F924        F  0.91259735  0.21191795  0.46460319    -0.22300
F925        F  0.91200829  0.23955332  0.44178210    -0.23800
F926        F  0.91808840  0.24507977  0.47647830    -0.17800
F927        F  0.90656289  0.13817166  0.41439111    -0.20200
F928        F  0.88047990  0.15772487  0.42955087    -0.21400
F929        F  0.91013333  0.15004210  0.44778420    -0.18600
F930        F  0.93382627  0.23944998  0.37600452    -0.18700
F931        F  0.96399973  0.22944348  0.39209716    -0.22500
F932        F  0.94033613  0.24995654  0.40947413    -0.24100
C933        C  0.78235620  0.96694841  0.57392564    -0.10900
C934        C  0.78960436  0.94745518  0.56577750     0.11700
C935        C  0.78529957  0.94213026  0.54423375    -0.02700
C936        C  0.77437679  0.95691272  0.53133936    -0.05500
C937        C  0.76742885  0.97652983  0.53941380    -0.16200
C938        C  0.77139515  0.98169558  0.56102762     0.02700
C939        C  0.80122521  0.93266533  0.58029924     0.12600
C940        C  0.79214908  0.92087429  0.53497688     0.63300
H941        H  0.77107600  0.95326147  0.51479366     0.12700
C942        C  0.76417716  0.00278895  0.57027710     0.55400
H943        H  0.78544528  0.97053064  0.59052678     0.08500
C944        C  0.82325876  0.93505234  0.58491042    -0.05400
C945        C  0.83330578  0.91987994  0.59812230    -0.06100
C946        C  0.82192289  0.90268235  0.60674029    -0.15700
C947        C  0.79984167  0.90065090  0.60259593    -0.01300
C948        C  0.78979926  0.91581704  0.58952448    -0.08800
C949        C  0.83598007  0.95359710  0.57597355     0.65500
H950        H  0.85011926  0.92130833  0.60183766     0.10900
C951        C  0.78703982  0.88245308  0.61211496     0.63900
H952        H  0.77290666  0.91451330  0.58615064     0.08300
F953        F  0.77329648  0.01937110  0.55900406    -0.19200
F954        F  0.76999586  0.00494072  0.59145528    -0.15400
F955        F  0.74223836  0.00428962  0.56895535    -0.18900
F956        F  0.78169010  0.90449386  0.54532732    -0.22300
F957        F  0.81388016  0.91828772  0.53744784    -0.23800
F958        F  0.78745277  0.91935900  0.51347782    -0.17800
F959        F  0.78873236  0.88290613  0.63408745    -0.20200
F960        F  0.79476928  0.86324165  0.60466779    -0.21400
F961        F  0.76566474  0.88370039  0.60682101    -0.18600
F962        F  0.85729638  0.95244384  0.58155710    -0.18700
F963        F  0.82798625  0.97254147  0.58377205    -0.22500
F964        F  0.83464404  0.95372008  0.55399430    -0.24100
C965        C  0.78710225  0.04068512  0.44891539    -0.10900
C966        C  0.79020587  0.06205887  0.45465098     0.11700
C967        C  0.78362536  0.06915406  0.47506402    -0.02700
C968        C  0.77383993  0.05448338  0.48898251    -0.05500
C969        C  0.77060851  0.03316367  0.48311192    -0.16200
C970        C  0.77762048  0.02598464  0.46293116     0.02700
C971        C  0.79906931  0.07682069  0.43828507     0.12600
C972        C  0.78668725  0.09213536  0.48199272     0.63300
H973        H  0.76820558  0.05962078  0.50445158     0.12700
C974        C  0.77476370  0.00295547  0.45614430     0.55400
H975        H  0.79192811  0.03568817  0.43313435     0.08500
C976        C  0.82107519  0.07808439  0.43372575    -0.05400
C977        C  0.82809975  0.09229383  0.41779113    -0.06100
C978        C  0.81382925  0.10472761  0.40564097    -0.15700
C979        C  0.79148010  0.10257123  0.40980196    -0.01300
C980        C  0.78471320  0.08877372  0.42618607    -0.08800
C981        C  0.83698525  0.06404562  0.44531661     0.65500
H982        H  0.84497706  0.09345235  0.41450277     0.10900
C983        C  0.77448603  0.11441163  0.39723554     0.63900
H984        H  0.76791205  0.08693515  0.42966731     0.08300
F985        F  0.78281346  0.99926647  0.43596723    -0.19200
F986        F  0.75337402  0.99774324  0.45596797    -0.15400
F987        F  0.78530952  0.98974521  0.47022994    -0.18900
F988        F  0.77501789  0.10546086  0.46895455    -0.22300
F989        F  0.80798132  0.09764852  0.48073502    -0.23800
F990        F  0.78008744  0.09538470  0.50277482    -0.17800
F991        F  0.77564933  0.10886220  0.37593880    -0.20200
F992        F  0.77732844  0.13610751  0.39959709    -0.21400
F993        F  0.75407795  0.10960701  0.40412061    -0.18600
F994        F  0.85777244  0.06870196  0.43961215    -0.18700
F995        F  0.83308025  0.04293455  0.44038876    -0.22500
F996        F  0.83516758  0.06680199  0.46707799    -0.24100
C997        C  0.21060727  0.05486692  0.53570043    -0.10900
C998        C  0.21531242  0.05645236  0.55746260     0.11700
C999        C  0.23061837  0.04272909  0.56666499    -0.02700
C1000       C  0.24055241  0.02750354  0.55364009    -0.05500
C1001       C  0.23594072  0.02585886  0.53179524    -0.16200
C1002       C  0.22105268  0.04011808  0.52247081     0.02700
C1003       C  0.20391651  0.07259534  0.57037180     0.12600
C1004       C  0.23651932  0.04429126  0.59011091     0.63300
H1005       H  0.25213725  0.01669228  0.56042713     0.12700
C1006       C  0.21648482  0.04041393  0.49868410     0.55400
H1007       H  0.19869666  0.06544787  0.52910513     0.08500
C1008       C  0.21052254  0.09413564  0.57105707    -0.05400
C1009       C  0.20032361  0.10800411  0.58532938    -0.06100
C1010       C  0.18369114  0.10105791  0.59860916    -0.15700
C1011       C  0.17610551  0.07981188  0.59676157    -0.01300
C1012       C  0.18646667  0.06591083  0.58258766    -0.08800
C1013       C  0.22825945  0.10239721  0.55681276     0.65500
H1014       H  0.20563334  0.12438020  0.58656988     0.10900
C1015       C  0.15695571  0.07188270  0.60924273     0.63900
H1016       H  0.18138829  0.04945885  0.58130160     0.08300
F1017       F  0.23522733  0.03886610  0.48723331    -0.19200
F1018       F  0.20656903  0.05912947  0.49262351    -0.15400
F1019       F  0.20317597  0.02367329  0.49335615    -0.18900
F1020       F  0.21898718  0.03954155  0.60252872    -0.22300
F1021       F  0.24343924  0.06467400  0.59485011    -0.23800
F1022       F  0.25266829  0.03031040  0.59548570    -0.17800
F1023       F  0.15014522  0.05210252  0.60218459    -0.20200
F1024       F  0.14018610  0.08594454  0.60689643    -0.21400
F1025       F  0.16214124  0.07006673  0.63056910    -0.18600
F1026       F  0.23281607  0.12362493  0.56075094    -0.18700
F1027       F  0.22220933  0.10051422  0.53571562    -0.22500
F1028       F  0.24668080  0.09084178  0.56009840    -0.24100
C1029       C  0.18742471  0.91814222  0.43651015    -0.10900
C1030       C  0.20909970  0.92303029  0.43453212     0.11700
C1031       C  0.22122516  0.91355693  0.41818156    -0.02700
C1032       C  0.21081624  0.90016302  0.40352511    -0.05500
C1033       C  0.18888727  0.89528682  0.40510441    -0.16200
C1034       C  0.17699140  0.90425740  0.42222944     0.02700
C1035       C  0.21876097  0.93785769  0.45020405     0.12600
C1036       C  0.24517910  0.91705692  0.41664423     0.63300
H1037       H  0.22000317  0.89318339  0.39076034     0.12700
C1038       C  0.15359154  0.89915844  0.42594368     0.55400
H1039       H  0.17874291  0.92540717  0.44949167     0.08500
C1040       C  0.21850481  0.96018544  0.44716454    -0.05400
C1041       C  0.22858572  0.97322177  0.46238576    -0.06100
C1042       C  0.23831564  0.96459395  0.48055692    -0.15700
C1043       C  0.23760443  0.94235157  0.48412335    -0.01300
C1044       C  0.22789948  0.92926683  0.46868086    -0.08800
C1045       C  0.20733597  0.97015181  0.42814014     0.65500
H1046       H  0.22902649  0.99032455  0.46022944     0.10900
C1047       C  0.24645880  0.93262414  0.50439998     0.63900
H1048       H  0.22736760  0.91217085  0.47084799     0.08300
F1049       F  0.14146767  0.90694707  0.40927903    -0.19200
F1050       F  0.14604474  0.90827506  0.44453297    -0.15400
F1051       F  0.15079637  0.87736146  0.42764172    -0.18900
F1052       F  0.25499290  0.90870602  0.43449528    -0.22300
F1053       F  0.24984257  0.93853249  0.41540441    -0.23800
F1054       F  0.25376327  0.90725578  0.39887316    -0.17800
F1055       F  0.24264461  0.91092107  0.50537185    -0.20200
F1056       F  0.23692766  0.94202027  0.52187300    -0.21400
F1057       F  0.26822379  0.93580889  0.50549413    -0.18600
F1058       F  0.20957219  0.99208828  0.42794765    -0.18700
F1059       F  0.18582694  0.96541680  0.42886866    -0.22500
F1060       F  0.21567608  0.96233745  0.40935429    -0.24100
C1061       C  0.73447626  0.75184446  0.63009868    -0.10900
C1062       C  0.75030803  0.74702954  0.61512224     0.11700
C1063       C  0.74876076  0.72787718  0.60323199    -0.02700
C1064       C  0.73160853  0.71394263  0.60729279    -0.05500
C1065       C  0.71567309  0.71882817  0.62222815    -0.16200
C1066       C  0.71698018  0.73828465  0.63371459     0.02700
C1067       C  0.76939473  0.76113539  0.61495196     0.12600
C1068       C  0.76467333  0.72122206  0.58632281     0.63300
H1069       H  0.73065349  0.69900782  0.59865086     0.12700
C1070       C  0.70062686  0.74437008  0.65048808     0.55400
H1071       H  0.73628343  0.76626582  0.63940908     0.08500
C1072       C  0.76875307  0.78219741  0.60691609    -0.05400
C1073       C  0.78574205  0.79615278  0.61168500    -0.06100
C1074       C  0.80322787  0.78943324  0.62387329    -0.15700
C1075       C  0.80504978  0.76766108  0.62952415    -0.01300
C1076       C  0.78783364  0.75390516  0.62527778    -0.08800
C1077       C  0.75021472  0.78977029  0.59339044     0.65500
H1078       H  0.78494252  0.81270669  0.60691911     0.10900
C1079       C  0.82516434  0.75895749  0.63976700     0.63900
H1080       H  0.78826126  0.73756496  0.63078674     0.08300
F1081       F  0.68110824  0.74789500  0.64088824    -0.19200
F1082       F  0.70630299  0.76279082  0.66124844    -0.15400
F1083       F  0.69869196  0.72823512  0.66535784    -0.18900
F1084       F  0.77518316  0.70309736  0.59303249    -0.22300
F1085       F  0.77965404  0.73675328  0.58186669    -0.23800
F1086       F  0.75390698  0.71666505  0.56760716    -0.17800
F1087       F  0.82703255  0.76626381  0.66044983    -0.20200
F1088       F  0.84277607  0.76542639  0.62819844    -0.21400
F1089       F  0.82507446  0.73691352  0.64025954    -0.18600
F1090       F  0.75372080  0.81003209  0.58544206    -0.18700
F1091       F  0.73173800  0.79018716  0.60530325    -0.22500
F1092       F  0.74744290  0.77608582  0.57632654    -0.24100
C1093       C  0.22498137  0.24916160  0.63365813    -0.10900
C1094       C  0.24344664  0.24329007  0.62265922     0.11700
C1095       C  0.24484451  0.22277451  0.61334661    -0.02700
C1096       C  0.22768890  0.20847820  0.61602623    -0.05500
C1097       C  0.20983724  0.21397250  0.62827341    -0.16200
C1098       C  0.20803838  0.23487037  0.63660934     0.02700
C1099       C  0.26187613  0.25808102  0.62403757     0.12600
C1100       C  0.26467293  0.21574700  0.60146189     0.63300
H1101       H  0.22873827  0.19241224  0.60984159     0.12700
C1102       C  0.18846743  0.24204240  0.64888058     0.55400
H1103       H  0.22444233  0.26477934  0.64096975     0.08500
C1104       C  0.26277249  0.27744096  0.61254749    -0.05400
C1105       C  0.27885441  0.29230011  0.61765703    -0.06100
C1106       C  0.29364672  0.28845369  0.63404451    -0.15700
C1107       C  0.29347396  0.26843019  0.64459093    -0.01300
C1108       C  0.27731740  0.25375009  0.63955573    -0.08800
C1109       C  0.24643487  0.28264013  0.59547284     0.65500
H1110       H  0.27929614  0.30752824  0.60960778     0.10900
C1111       C  0.31013209  0.26233515  0.66110883     0.63900
H1112       H  0.27605253  0.23901608  0.64841649     0.08300
F1113       F  0.18839165  0.26386868  0.65199662    -0.19200
F1114       F  0.18798401  0.23242911  0.66866733    -0.15400
F1115       F  0.17021892  0.23667982  0.63767328    -0.18900
F1116       F  0.28169892  0.21439861  0.61538107    -0.22300
F1117       F  0.26950984  0.23024475  0.58563604    -0.23800
F1118       F  0.26192435  0.19599548  0.59202027    -0.17800
F1119       F  0.30637177  0.27303811  0.67997800    -0.20200
F1120       F  0.33029629  0.26733147  0.65373177    -0.21400
F1121       F  0.30972480  0.24071012  0.66539666    -0.18600
F1122       F  0.25161537  0.30112610  0.58463474    -0.18700
F1123       F  0.22662071  0.28538098  0.60461446    -0.22500
F1124       F  0.24532056  0.26624005  0.58081708    -0.24100
C1125       C  0.56917653  0.54073761  0.70913883    -0.10900
C1126       C  0.56203288  0.56120131  0.70384131     0.11700
C1127       C  0.54059112  0.56691921  0.70783354    -0.02700
C1128       C  0.52736116  0.55234967  0.71857490    -0.05500
C1129       C  0.53476662  0.53221031  0.72464212    -0.16200
C1130       C  0.55573230  0.52594796  0.71931840     0.02700
C1131       C  0.57745134  0.57638287  0.69424776     0.12600
C1132       C  0.53171657  0.58816434  0.70050462     0.63300
H1133       H  0.51106790  0.55653870  0.72236141     0.12700
C1134       C  0.56366654  0.50369390  0.72419987     0.55400
H1135       H  0.58547264  0.53654342  0.70537340     0.08500
C1136       C  0.59069227  0.58945019  0.70695442    -0.05400
C1137       C  0.60432113  0.60408513  0.69684648    -0.06100
C1138       C  0.60586589  0.60552571  0.67444078    -0.15700
C1139       C  0.59316213  0.59144975  0.66175987    -0.01300
C1140       C  0.57900333  0.57733535  0.67204519    -0.08800
C1141       C  0.59091508  0.58739062  0.73109476     0.65500
H1142       H  0.61419003  0.61433389  0.70662372     0.10900
C1143       C  0.59447143  0.59078080  0.63758546     0.63900
H1144       H  0.56893104  0.56674270  0.66282845     0.08300
F1145       F  0.56329469  0.50021608  0.74592859    -0.19200
F1146       F  0.58431316  0.50063290  0.71711228    -0.15400
F1147       F  0.55068965  0.48887592  0.71423365    -0.18900
F1148       F  0.53297610  0.58949358  0.67856616    -0.22300
F1149       F  0.54322777  0.60473192  0.70940230    -0.23800
F1150       F  0.51057711  0.59061250  0.70625589    -0.17800
F1151       F  0.61514134  0.58634649  0.63140051    -0.20200
F1152       F  0.58810244  0.61009113  0.62917487    -0.21400
F1153       F  0.58144105  0.57516252  0.62895501    -0.18600
F1154       F  0.60401291  0.60244241  0.74058527    -0.18700
F1155       F  0.59832004  0.56743806  0.73664856    -0.22500
F1156       F  0.57063051  0.58996392  0.73920964    -0.24100
C1157       C  0.43862254  0.47145785  0.71470295    -0.10900
C1158       C  0.44484524  0.45089296  0.70868902     0.11700
C1159       C  0.46654546  0.44489747  0.71031217    -0.02700
C1160       C  0.48114611  0.45942735  0.71931610    -0.05500
C1161       C  0.47467341  0.47961738  0.72626700    -0.16200
C1162       C  0.45325379  0.48602322  0.72351771     0.02700
C1163       C  0.42812406  0.43596299  0.70096368     0.12600
C1164       C  0.47417517  0.42329131  0.70260728     0.63300
H1165       H  0.49770839  0.45503624  0.72135726     0.12700
C1166       C  0.44601999  0.50818460  0.72980019     0.55400
H1167       H  0.42204504  0.47583633  0.71279429     0.08500
C1168       C  0.41552873  0.42385110  0.71525393    -0.05400
C1169       C  0.40015761  0.40976454  0.70686371    -0.06100
C1170       C  0.39688802  0.40782198  0.68485997    -0.15700
C1171       C  0.40892550  0.42046322  0.67062267    -0.01300
C1172       C  0.42441724  0.43445294  0.67896807    -0.08800
C1173       C  0.41821482  0.42596878  0.73922824     0.65500
H1174       H  0.39062887  0.39999407  0.71742350     0.10900
C1175       C  0.40529634  0.41907558  0.64677483     0.63900
H1176       H  0.43391219  0.44423583  0.66839132     0.08300
F1177       F  0.42475920  0.51149867  0.72494936    -0.19200
F1178       F  0.45798059  0.52320671  0.71899114    -0.15400
F1179       F  0.44865736  0.51112815  0.75146583    -0.18900
F1180       F  0.47001039  0.42116883  0.68108376    -0.22300
F1181       F  0.46379163  0.40721904  0.71348547    -0.23800
F1182       F  0.49587520  0.42074926  0.70567413    -0.17800
F1183       F  0.41820968  0.43312265  0.63570594    -0.20200
F1184       F  0.38429597  0.42389906  0.64216342    -0.21400
F1185       F  0.40966030  0.39868138  0.63974831    -0.18600
F1186       F  0.40495375  0.41215888  0.75017633    -0.18700
F1187       F  0.41335236  0.44649540  0.74546466    -0.22500
F1188       F  0.43897784  0.42152143  0.74503948    -0.24100
C1189       C  0.27480385  0.46417386  0.56402268    -0.10900
C1190       C  0.28211887  0.44391500  0.55815186     0.11700
C1191       C  0.27960659  0.43690211  0.53680228    -0.02700
C1192       C  0.26957735  0.45047511  0.52204126    -0.05500
C1193       C  0.26218589  0.47065163  0.52799100    -0.16200
C1194       C  0.26517427  0.47788756  0.54914133     0.02700
C1195       C  0.29209939  0.43024880  0.57477358     0.12600
C1196       C  0.28745763  0.41518714  0.52967065     0.63300
H1197       H  0.26711172  0.44533428  0.50574404     0.12700
C1198       C  0.25851453  0.50013083  0.55577269     0.55400
H1199       H  0.27666682  0.46913587  0.58044424     0.08500
C1200       C  0.31344341  0.43324986  0.58161741    -0.05400
C1201       C  0.32216595  0.41887488  0.59650177    -0.06100
C1202       C  0.31006535  0.40205084  0.60488033    -0.15700
C1203       C  0.28841299  0.39976319  0.59889047    -0.01300
C1204       C  0.27977305  0.41396692  0.58386223    -0.08800
C1205       C  0.32678613  0.45170921  0.57343540     0.65500
H1206       H  0.33853455  0.42064245  0.60174062     0.10900
C1207       C  0.27447109  0.38258491  0.60866965     0.63900
H1208       H  0.26330699  0.41236414  0.57887872     0.08300
F1209       F  0.26793734  0.51495953  0.54248638    -0.19200
F1210       F  0.26464195  0.50472692  0.57646805    -0.15400
F1211       F  0.23662191  0.50206798  0.55445314    -0.18900
F1212       F  0.27635605  0.39935075  0.54018810    -0.22300
F1213       F  0.30893863  0.41321954  0.53415354    -0.23800
F1214       F  0.28466157  0.41213268  0.50799873    -0.17800
F1215       F  0.25347925  0.38421051  0.60205264    -0.20200
F1216       F  0.27489090  0.38435886  0.63063292    -0.21400
F1217       F  0.28191653  0.36271923  0.60286240    -0.18600
F1218       F  0.34756800  0.45076640  0.58078912    -0.18700
F1219       F  0.31809591  0.47071376  0.58028142    -0.22500
F1220       F  0.32727949  0.45150799  0.55142087    -0.24100
C1221       C  0.27352379  0.73059691  0.39066427    -0.10900
C1222       C  0.25623478  0.73245915  0.37657892     0.11700
C1223       C  0.25335772  0.71725409  0.36016052    -0.02700
C1224       C  0.26831247  0.70087037  0.35808000    -0.05500
C1225       C  0.28640840  0.69972322  0.37118167    -0.16200
C1226       C  0.28890362  0.71444014  0.38817206     0.02700
C1227       C  0.24312004  0.75202465  0.37717224     0.12600
C1228       C  0.23560950  0.71927881  0.34374756     0.63300
H1229       H  0.26671614  0.68949961  0.34518344     0.12700
C1230       C  0.30822920  0.71389240  0.40274194     0.55400
H1231       H  0.27542392  0.74257970  0.40294196     0.08500
C1232       C  0.22382600  0.75335030  0.38860430    -0.05400
C1233       C  0.21024762  0.77071959  0.38462054    -0.06100
C1234       C  0.21598180  0.78714314  0.37045785    -0.15700
C1235       C  0.23649718  0.78677588  0.36081831    -0.01300
C1236       C  0.24960219  0.76900347  0.36429325    -0.08800
C1237       C  0.21790270  0.73667370  0.40506924     0.65500
H1238       H  0.19492120  0.77153448  0.39246340     0.10900
C1239       C  0.24438936  0.80441435  0.34621683     0.63900
H1240       H  0.26480493  0.76772373  0.35626556     0.08300
F1241       F  0.30836313  0.69504082  0.41409521    -0.19200
F1242       F  0.30817621  0.73054488  0.41721108    -0.15400
F1243       F  0.32668423  0.71539854  0.39081276    -0.18900
F1244       F  0.23916492  0.73706674  0.33129047    -0.22300
F1245       F  0.21609001  0.72122073  0.35366920    -0.23800
F1246       F  0.23458622  0.70169821  0.33045240    -0.17800
F1247       F  0.24613338  0.82323904  0.35753575    -0.20200
F1248       F  0.23038599  0.80704947  0.32939108    -0.21400
F1249       F  0.26427136  0.79995598  0.33780895    -0.18600
F1250       F  0.19848067  0.74101701  0.41452144    -0.18700
F1251       F  0.23329863  0.73630477  0.42085003    -0.22500
F1252       F  0.21664148  0.71674705  0.39579835    -0.24100
C1253       C  0.31636924  0.56221940  0.41996946    -0.10900
C1254       C  0.29429373  0.55878897  0.41845198     0.11700
C1255       C  0.28224244  0.57031651  0.40323258    -0.02700
C1256       C  0.29288462  0.58473655  0.38973659    -0.05500
C1257       C  0.31486563  0.58841125  0.39151444    -0.16200
C1258       C  0.32689080  0.57702463  0.40676397     0.02700
C1259       C  0.28389313  0.54476734  0.43448787     0.12600
C1260       C  0.25818803  0.56780095  0.40163620     0.63300
H1261       H  0.28399754  0.59382585  0.37808373     0.12700
C1262       C  0.35063671  0.58082256  0.40917216     0.55400
H1263       H  0.32518266  0.55363481  0.43204931     0.08500
C1264       C  0.28287223  0.52232143  0.43232699    -0.05400
C1265       C  0.27188706  0.51044139  0.44792679    -0.06100
C1266       C  0.26230156  0.52036271  0.46550600    -0.15700
C1267       C  0.26416418  0.54269567  0.46808805    -0.01300
C1268       C  0.27505086  0.55451151  0.45250074    -0.08800
C1269       C  0.29348822  0.51104512  0.41378341     0.65500
H1270       H  0.27060431  0.49329707  0.44651373     0.10900
C1271       C  0.25500068  0.55394357  0.48741863     0.63900
H1272       H  0.27655137  0.57162597  0.45407223     0.08300
F1273       F  0.36066213  0.57734259  0.38988817    -0.19200
F1274       F  0.35962619  0.56738453  0.42414860    -0.15400
F1275       F  0.35425888  0.60159953  0.41555653    -0.18900
F1276       F  0.24875035  0.57418954  0.42044752    -0.22300
F1277       F  0.25297653  0.54675661  0.39777521    -0.23800
F1278       F  0.24971697  0.57997283  0.38533188    -0.17800
F1279       F  0.25986600  0.57545736  0.48749114    -0.20200
F1280       F  0.26327226  0.54507595  0.50579761    -0.21400
F1281       F  0.23307187  0.55191536  0.48758246    -0.18600
F1282       F  0.29031038  0.48923186  0.41454228    -0.18700
F1283       F  0.31518837  0.51485071  0.41428616    -0.22500
F1284       F  0.28532608  0.51842716  0.39472330    -0.24100
C1285       C  0.53580709  0.72676840  0.56054160    -0.10900
C1286       C  0.55305495  0.71659565  0.55071430     0.11700
C1287       C  0.55349392  0.71450099  0.52826919    -0.02700
C1288       C  0.53770117  0.72485309  0.51621842    -0.05500
C1289       C  0.52116752  0.73619498  0.52603243    -0.16200
C1290       C  0.51950453  0.73630144  0.54850831     0.02700
C1291       C  0.57012979  0.70791415  0.56454155     0.12600
C1292       C  0.57013656  0.70090755  0.51721793     0.63300
H1293       H  0.53812199  0.72422666  0.49898436     0.12700
C1294       C  0.50036773  0.74590598  0.55965749     0.55400
H1295       H  0.53536292  0.72734621  0.57777614     0.08500
C1296       C  0.58812693  0.72019122  0.57039818    -0.05400
C1297       C  0.60367887  0.71091805  0.58362271    -0.06100
C1298       C  0.60115756  0.69033656  0.59221863    -0.15700
C1299       C  0.58216195  0.67871963  0.58746700    -0.01300
C1300       C  0.56727665  0.68760853  0.57322897    -0.08800
C1301       C  0.59031066  0.74332353  0.56355259     0.65500
H1302       H  0.61781340  0.71997029  0.58770494     0.10900
C1303       C  0.57683871  0.65758132  0.59801420     0.63900
H1304       H  0.55293796  0.67892434  0.56900849     0.08300
F1305       F  0.48178561  0.73766603  0.55102574    -0.19200
F1306       F  0.50047694  0.76775891  0.55722663    -0.15400
F1307       F  0.50040059  0.74140584  0.58124378    -0.18900
F1308       F  0.56867417  0.68019000  0.52450490    -0.22300
F1309       F  0.59036180  0.70857253  0.52140721    -0.23800
F1310       F  0.56728259  0.70063841  0.49534236    -0.17800
F1311       F  0.55614965  0.65114470  0.59369806    -0.20200
F1312       F  0.57879460  0.65947022  0.61989581    -0.21400
F1313       F  0.59037221  0.64189865  0.59065020    -0.18600
F1314       F  0.60898833  0.75244477  0.57103554    -0.18700
F1315       F  0.57341895  0.75492760  0.57152905    -0.22500
F1316       F  0.59027298  0.74490758  0.54161488    -0.24100
C1317       C  0.45711895  0.71110151  0.44002092    -0.10900
C1318       C  0.43521857  0.71190213  0.44420156     0.11700
C1319       C  0.42760570  0.72332105  0.46205640    -0.02700
C1320       C  0.44239567  0.73434340  0.47484487    -0.05500
C1321       C  0.46429706  0.73384149  0.47044197    -0.16200
C1322       C  0.47190763  0.72210148  0.45276757     0.02700
C1323       C  0.42071234  0.70105153  0.42906507     0.12600
C1324       C  0.40406914  0.72362610  0.46765429     0.63300
H1325       H  0.43702483  0.74337245  0.48852385     0.12700
C1326       C  0.49540158  0.72169291  0.44702067     0.55400
H1327       H  0.46246906  0.70201029  0.42637178     0.08500
C1328       C  0.41501459  0.71057512  0.40945085    -0.05400
C1329       C  0.40214970  0.69899183  0.39526940    -0.06100
C1330       C  0.39462403  0.67857081  0.40027657    -0.15700
C1331       C  0.40006198  0.66912133  0.42000184    -0.01300
C1332       C  0.41340073  0.68051507  0.43403219    -0.08800
C1333       C  0.42248837  0.73284784  0.40352075     0.65500
H1334       H  0.39762932  0.70590924  0.38011584     0.10900
C1335       C  0.39219074  0.64704349  0.42595056     0.63900
H1336       H  0.41821866  0.67353256  0.44905749     0.08300
F1337       F  0.49895154  0.71111061  0.42800140    -0.19200
F1338       F  0.50681464  0.71140094  0.46275956    -0.15400
F1339       F  0.50298408  0.74227837  0.44488373    -0.18900
F1340       F  0.39735568  0.70325272  0.47262644    -0.22300
F1341       F  0.39223946  0.73105537  0.45063769    -0.23800
F1342       F  0.40000743  0.73660966  0.48500069    -0.17800
F1343       F  0.40121799  0.63997284  0.44478835    -0.20200
F1344       F  0.39736180  0.63270531  0.41005414    -0.21400
F1345       F  0.37032487  0.64734255  0.42855414    -0.18600
F1346       F  0.41390633  0.73950104  0.38432278    -0.18700
F1347       F  0.44441862  0.73321187  0.40166740    -0.22500
F1348       F  0.41641244  0.74724047  0.41900853    -0.24100
C1349       C  0.46097798  0.28239075  0.56936010    -0.10900
C1350       C  0.44027312  0.28660171  0.56205850     0.11700
C1351       C  0.43430275  0.28081727  0.54107062    -0.02700
C1352       C  0.44928851  0.27037954  0.52817747    -0.05500
C1353       C  0.46981706  0.26578069  0.53563368    -0.16200
C1354       C  0.47591141  0.27181748  0.55649173     0.02700
C1355       C  0.42524326  0.29725966  0.57677105     0.12600
C1356       C  0.41225365  0.28567603  0.53235041     0.63300
H1357       H  0.44509984  0.26559933  0.51211579     0.12700
C1358       C  0.49804962  0.26712003  0.56499772     0.55400
H1359       H  0.46524513  0.28731002  0.58536230     0.08500
C1360       C  0.41441063  0.28589578  0.59297589    -0.05400
C1361       C  0.40070781  0.29715566  0.60658465    -0.06100
C1362       C  0.39734822  0.31906425  0.60413503    -0.15700
C1363       C  0.40787445  0.33035721  0.58780595    -0.01300
C1364       C  0.42205752  0.31925971  0.57453341    -0.08800
C1365       C  0.41716825  0.26201623  0.59575917     0.65500
H1366       H  0.39234499  0.28891656  0.61923028     0.10900
C1367       C  0.40413353  0.35397693  0.58464208     0.63900
H1368       H  0.43070574  0.32762582  0.56217710     0.08300
F1369       F  0.50163380  0.24541166  0.56479419    -0.19200
F1370       F  0.50067532  0.27430424  0.58569875    -0.15400
F1371       F  0.51309276  0.27707311  0.55239666    -0.18900
F1372       F  0.40934572  0.30745268  0.53137716    -0.22300
F1373       F  0.39682694  0.27689698  0.54536778    -0.23800
F1374       F  0.40941478  0.27749962  0.51205509    -0.17800
F1375       F  0.41581007  0.36196979  0.56774472    -0.20200
F1376       F  0.40999043  0.36492222  0.60286732    -0.21400
F1377       F  0.38278607  0.35755966  0.58052165    -0.18600
F1378       F  0.40431479  0.25405842  0.61180861    -0.18700
F1379       F  0.43807549  0.25746606  0.60091784    -0.22500
F1380       F  0.41186488  0.25158077  0.57708690    -0.24100
C1381       C  0.75465295  0.22609248  0.38775250    -0.10900
C1382       C  0.75727468  0.24599711  0.37805263     0.11700
C1383       C  0.77729196  0.25157776  0.36935188    -0.02700
C1384       C  0.79324067  0.23589042  0.36815001    -0.05500
C1385       C  0.78985551  0.21505329  0.37570927    -0.16200
C1386       C  0.77076725  0.21052919  0.38703298     0.02700
C1387       C  0.73826334  0.25982506  0.37532798     0.12600
C1388       C  0.78151912  0.27387102  0.36095782     0.63300
H1389       H  0.80811828  0.23954331  0.36022499     0.12700
C1390       C  0.76713025  0.18945073  0.39819925     0.55400
H1391       H  0.73940059  0.22242369  0.39496249     0.08500
C1392       C  0.72470985  0.25746174  0.35745052    -0.05400
C1393       C  0.70771183  0.27170593  0.35488332    -0.06100
C1394       C  0.70366991  0.28815154  0.36955374    -0.15700
C1395       C  0.71680786  0.28997592  0.38798048    -0.01300
C1396       C  0.73391891  0.27560804  0.39053006    -0.08800
C1397       C  0.72820546  0.23992840  0.34109180     0.65500
H1398       H  0.69742583  0.27015626  0.34110338     0.10900
C1399       C  0.71338153  0.30730057  0.40451859     0.63900
H1400       H  0.74435811  0.27679573  0.40423057     0.08300
F1401       F  0.76200665  0.17398937  0.38337317    -0.19200
F1402       F  0.75060243  0.19073669  0.41273414    -0.15400
F1403       F  0.78528665  0.18355755  0.40923156    -0.18900
F1404       F  0.77827063  0.28854337  0.37704844    -0.22300
F1405       F  0.76792442  0.27838654  0.34422626    -0.23800
F1406       F  0.80224681  0.27619090  0.35380387    -0.17800
F1407       F  0.69383225  0.30445724  0.41425825    -0.20200
F1408       F  0.71406767  0.32710219  0.39489347    -0.21400
F1409       F  0.72886519  0.30695038  0.42024865    -0.18600
F1410       F  0.71351841  0.24085442  0.32463548    -0.18700
F1411       F  0.72624098  0.22027048  0.35077543    -0.22500
F1412       F  0.74830488  0.24167090  0.33230150    -0.24100
C1413       C  0.55307710  0.28523128  0.46487885    -0.10900
C1414       C  0.54717757  0.28381280  0.44337470     0.11700
C1415       C  0.52888625  0.27185664  0.43752181    -0.02700
C1416       C  0.51638259  0.26266955  0.45373723    -0.05500
C1417       C  0.52201186  0.26461006  0.47530981    -0.16200
C1418       C  0.54087268  0.27565992  0.48102035     0.02700
C1419       C  0.56145210  0.29394274  0.42742517     0.12600
C1420       C  0.52293749  0.26839999  0.41430687     0.63300
H1421       H  0.50224830  0.25354696  0.44971305     0.12700
C1422       C  0.54834854  0.27688135  0.50399505     0.55400
H1423       H  0.56750252  0.29388421  0.46889023     0.08500
C1424       C  0.56084288  0.31607297  0.42301037    -0.05400
C1425       C  0.57594226  0.32471982  0.40878829    -0.06100
C1426       C  0.59158308  0.31195608  0.39928597    -0.15700
C1427       C  0.59193090  0.28980979  0.40346144    -0.01300
C1428       C  0.57697140  0.28121102  0.41773861    -0.08800
C1429       C  0.54440778  0.33042775  0.43338647     0.65500
H1430       H  0.57582778  0.34157557  0.40514032     0.10900
C1431       C  0.60784288  0.27531480  0.39254276     0.63900
H1432       H  0.57734192  0.26441194  0.42162175     0.08300
F1433       F  0.56847346  0.28581047  0.50567456    -0.19200
F1434       F  0.54914244  0.25667273  0.51271656    -0.15400
F1435       F  0.53445330  0.28928284  0.51563028    -0.18900
F1436       F  0.53897029  0.25735066  0.40410404    -0.22300
F1437       F  0.52008786  0.28775827  0.40428000    -0.23800
F1438       F  0.50427764  0.25676010  0.41219117    -0.17800
F1439       F  0.60461158  0.25414048  0.39778847    -0.20200
F1440       F  0.62831581  0.28089463  0.39854778    -0.21400
F1441       F  0.60586440  0.27726290  0.37068178    -0.18600
F1442       F  0.54626054  0.35128811  0.42651537    -0.18700
F1443       F  0.54700438  0.33025522  0.45524942    -0.22500
F1444       F  0.52411036  0.32335344  0.42847127    -0.24100
C1445       C  0.71928972  0.54403670  0.55475255    -0.10900
C1446       C  0.70983684  0.56132103  0.54435753     0.11700
C1447       C  0.71099439  0.56288878  0.52189726    -0.02700
C1448       C  0.72116505  0.54649454  0.51049303    -0.05500
C1449       C  0.73065881  0.52917901  0.52094680    -0.16200
C1450       C  0.72954380  0.52774567  0.54347753     0.02700
C1451       C  0.70029240  0.57819736  0.55780314     0.12600
C1452       C  0.70216699  0.58208532  0.51015949     0.63300
H1453       H  0.72250948  0.54744404  0.49332643     0.12700
C1454       C  0.73893271  0.50974252  0.55659440     0.55400
H1455       H  0.71873677  0.54333850  0.57200408     0.08500
C1456       C  0.67994616  0.57597370  0.56720183    -0.05400
C1457       C  0.67302674  0.59170608  0.58158617    -0.06100
C1458       C  0.68581824  0.60943292  0.58681155    -0.15700
C1459       C  0.70578534  0.61209640  0.57637903    -0.01300
C1460       C  0.71279901  0.59608825  0.56242874    -0.08800
C1461       C  0.66582395  0.55687150  0.56234497     0.65500
H1462       H  0.65777412  0.58987513  0.58938262     0.10900
C1463       C  0.71966912  0.63176776  0.57941372     0.63900
H1464       H  0.72841099  0.59720622  0.55521176     0.08300
F1465       F  0.72344805  0.50164602  0.57001410    -0.19200
F1466       F  0.75547977  0.51767877  0.56886334    -0.15400
F1467       F  0.74648737  0.49306155  0.54444773    -0.18900
F1468       F  0.71313863  0.60021889  0.51623784    -0.22300
F1469       F  0.68082417  0.58464192  0.51484748    -0.23800
F1470       F  0.70411859  0.57996139  0.48830452    -0.17800
F1471       F  0.73594552  0.63269078  0.56458259    -0.20200
F1472       F  0.72888546  0.63155511  0.59943445    -0.21400
F1473       F  0.70750828  0.64995670  0.57700740    -0.18600
F1474       F  0.64604532  0.55859234  0.57191276    -0.18700
F1475       F  0.67535959  0.53848141  0.56970520    -0.22500
F1476       F  0.66266709  0.55512525  0.54062051    -0.24100
C1477       C  0.71223612  0.43621262  0.46401856    -0.10900
C1478       C  0.71202923  0.43967918  0.44193961     0.11700
C1479       C  0.72251925  0.45781490  0.43348016    -0.02700
C1480       C  0.73330786  0.47169959  0.44751431    -0.05500
C1481       C  0.73348838  0.46823256  0.46958533    -0.16200
C1482       C  0.72291456  0.45017094  0.47806108     0.02700
C1483       C  0.70043959  0.42416770  0.42809302     0.12600
C1484       C  0.72196870  0.46267389  0.40978979     0.63300
H1485       H  0.74137405  0.48568882  0.44141626     0.12700
C1486       C  0.72327575  0.44548994  0.50177883     0.55400
H1487       H  0.70389598  0.42240632  0.47015703     0.08500
C1488       C  0.70956407  0.40448766  0.42193103    -0.05400
C1489       C  0.69784089  0.39086439  0.40842431    -0.06100
C1490       C  0.67763637  0.39647273  0.40064274    -0.15700
C1491       C  0.66834139  0.41594399  0.40711988    -0.01300
C1492       C  0.67984909  0.42936429  0.42105116    -0.08800
C1493       C  0.73169560  0.39805104  0.42932269     0.65500
H1494       H  0.70461135  0.37584633  0.40335909     0.10900
C1495       C  0.64628554  0.42233170  0.39959520     0.63900
H1496       H  0.67302556  0.44429336  0.42628000     0.08300
F1497       F  0.71322444  0.42642333  0.50650559    -0.19200
F1498       F  0.71296315  0.46148376  0.51277868    -0.15400
F1499       F  0.74413784  0.44422285  0.50879966    -0.18900
F1500       F  0.70128714  0.46696240  0.40356460    -0.22300
F1501       F  0.72944631  0.44546090  0.39831772    -0.23800
F1502       F  0.73442799  0.48017805  0.40474675    -0.17800
F1503       F  0.63924407  0.44061931  0.40966110    -0.20200
F1504       F  0.63190743  0.40616463  0.40389056    -0.21400
F1505       F  0.64660533  0.42615198  0.37791986    -0.18600
F1506       F  0.73788202  0.37874377  0.42068353    -0.18700
F1507       F  0.73202849  0.39610365  0.45123930    -0.22500
F1508       F  0.74642462  0.41327768  0.42325396    -0.24100
C1509       C  0.46557573  0.56534997  0.27058424    -0.10900
C1510       C  0.44478795  0.55829007  0.27485305     0.11700
C1511       C  0.43828607  0.53778656  0.26791680    -0.02700
C1512       C  0.45332277  0.52451531  0.25787508    -0.05500
C1513       C  0.47424232  0.53142787  0.25401767    -0.16200
C1514       C  0.48044372  0.55225816  0.26009745     0.02700
C1515       C  0.43011178  0.57275854  0.28656627     0.12600
C1516       C  0.41543395  0.53025095  0.27066451     0.63300
H1517       H  0.44880529  0.50864978  0.25268636     0.12700
C1518       C  0.50264206  0.56055949  0.25532428     0.55400
H1519       H  0.47005029  0.58126512  0.27560083     0.08500
C1520       C  0.42969325  0.57362764  0.30913697    -0.05400
C1521       C  0.41462483  0.58685957  0.31920782    -0.06100
C1522       C  0.40066653  0.59960605  0.30735783    -0.15700
C1523       C  0.40191230  0.59963911  0.28485008    -0.01300
C1524       C  0.41652388  0.58597404  0.27476560    -0.08800
C1525       C  0.44538824  0.56092340  0.32242479     0.65500
H1526       H  0.41371916  0.58750159  0.33642314     0.10900
C1527       C  0.38807210  0.61444434  0.27170628     0.63900
H1528       H  0.41749815  0.58548723  0.25754821     0.08300
F1529       F  0.51765977  0.54764935  0.26486543    -0.19200
F1530       F  0.50560841  0.58109263  0.26281709    -0.15400
F1531       F  0.50593323  0.56063544  0.23355418    -0.18900
F1532       F  0.40202272  0.54298434  0.25873505    -0.22300
F1533       F  0.40951856  0.53141960  0.29182488    -0.23800
F1534       F  0.41274224  0.50940088  0.26398772    -0.17800
F1535       F  0.39209952  0.63530912  0.27757820    -0.20200
F1536       F  0.36679047  0.60987090  0.27517252    -0.21400
F1537       F  0.39206429  0.61250253  0.25011816    -0.18600
F1538       F  0.44193815  0.56359022  0.34403068    -0.18700
F1539       F  0.46591741  0.56758209  0.31797148    -0.22500
F1540       F  0.44357320  0.53947407  0.31780565    -0.24100
C1541       C  0.55827608  0.46309154  0.28089927    -0.10900
C1542       C  0.55313261  0.44142894  0.27901046     0.11700
C1543       C  0.53503028  0.43519674  0.26697361    -0.02700
C1544       C  0.52287695  0.45104943  0.25681776    -0.05500
C1545       C  0.52827483  0.47269996  0.25837096    -0.16200
C1546       C  0.54637147  0.47889822  0.27042261     0.02700
C1547       C  0.56722135  0.42574225  0.28978451     0.12600
C1548       C  0.52870856  0.41194425  0.26467602     0.63300
H1549       H  0.50908912  0.44668304  0.24737880     0.12700
C1550       C  0.55340439  0.50198934  0.27183800     0.55400
H1551       H  0.57193861  0.46747515  0.29049474     0.08500
C1552       C  0.58745896  0.42026068  0.28147073    -0.05400
C1553       C  0.60030383  0.40596200  0.29296497    -0.06100
C1554       C  0.59344904  0.39687700  0.31219255    -0.15700
C1555       C  0.57317583  0.40227516  0.32045823    -0.01300
C1556       C  0.56048310  0.41691020  0.30916527    -0.08800
C1557       C  0.59549369  0.42951160  0.26060222     0.65500
H1558       H  0.61586935  0.40164617  0.28695665     0.10900
C1559       C  0.56528338  0.39315738  0.34139974     0.63900
H1560       H  0.54514233  0.42165565  0.31539164     0.08300
F1561       F  0.55535906  0.51050639  0.25162037    -0.19200
F1562       F  0.57290518  0.50409975  0.28199682    -0.15400
F1563       F  0.53856136  0.51349218  0.28322057    -0.18900
F1564       F  0.52316261  0.40374933  0.28432101    -0.22300
F1565       F  0.54554058  0.40038652  0.25652057    -0.23800
F1566       F  0.51145913  0.40935188  0.25112079    -0.17800
F1567       F  0.58013369  0.39702204  0.35726232    -0.20200
F1568       F  0.56213829  0.37145116  0.33940233    -0.21400
F1569       F  0.54616629  0.40217020  0.34759078    -0.18600
F1570       F  0.61456948  0.42040872  0.25439878    -0.18700
F1571       F  0.59877475  0.45116890  0.26278384    -0.22500
F1572       F  0.58074119  0.42595060  0.24459640    -0.24100
C1573       C  0.72963150  0.11963343  0.23718631    -0.10900
C1574       C  0.74458864  0.13609821  0.23948558     0.11700
C1575       C  0.74397871  0.15375893  0.22554619    -0.02700
C1576       C  0.72716504  0.15516559  0.21080991    -0.05500
C1577       C  0.71126735  0.13937236  0.20933735    -0.16200
C1578       C  0.71282818  0.12094916  0.22231698     0.02700
C1579       C  0.75963014  0.13536451  0.25775774     0.12600
C1580       C  0.76095237  0.17107185  0.22635886     0.63300
H1581       H  0.72616649  0.16885961  0.20039566     0.12700
C1582       C  0.69623210  0.10339610  0.22146051     0.55400
H1583       H  0.73077128  0.10612317  0.24781236     0.08500
C1584       C  0.75374886  0.14313572  0.27804504    -0.05400
C1585       C  0.76932465  0.14426800  0.29413515    -0.06100
C1586       C  0.79042151  0.13750417  0.29073983    -0.15700
C1587       C  0.79573687  0.12803963  0.27079071    -0.01300
C1588       C  0.78017190  0.12736883  0.25456754    -0.08800
C1589       C  0.73108785  0.15032542  0.28257120     0.65500
H1590       H  0.76517153  0.15106420  0.30940902     0.10900
C1591       C  0.81748113  0.11838441  0.26646148     0.63900
H1592       H  0.78404910  0.12103398  0.23900835     0.08300
F1593       F  0.69984797  0.08788412  0.23668110    -0.19200
F1594       F  0.69656605  0.09366895  0.20169771    -0.15400
F1595       F  0.67632461  0.11197818  0.22512915    -0.18900
F1596       F  0.78060284  0.16234932  0.22171018    -0.22300
F1597       F  0.76172184  0.18014313  0.24641508    -0.23800
F1598       F  0.75702379  0.18712982  0.21178119    -0.17800
F1599       F  0.81748152  0.10634424  0.24797205    -0.20200
F1600       F  0.82322680  0.10511281  0.28307516    -0.21400
F1601       F  0.83254060  0.13432940  0.26416731    -0.18600
F1602       F  0.72880584  0.15775328  0.30319986    -0.18700
F1603       F  0.71723191  0.13338012  0.27985915    -0.22500
F1604       F  0.72537303  0.16652629  0.26882538    -0.24100
C1605       C  0.61994408  0.25034156  0.22027203    -0.10900
C1606       C  0.60969464  0.24338480  0.23878155     0.11700
C1607       C  0.60021741  0.22293891  0.23932644    -0.02700
C1608       C  0.60459376  0.20865425  0.22256507    -0.05500
C1609       C  0.61745111  0.21479147  0.20534203    -0.16200
C1610       C  0.62386548  0.23634965  0.20332378     0.02700
C1611       C  0.61203061  0.25684923  0.25802471     0.12600
C1612       C  0.58562858  0.21648797  0.25745841     0.63300
H1613       H  0.59900593  0.19233618  0.22336109     0.12700
C1614       C  0.63509380  0.24447102  0.18353330     0.55400
H1615       H  0.62628884  0.26640891  0.21988777     0.08500
C1616       C  0.63012477  0.25476111  0.27135879    -0.05400
C1617       C  0.63321248  0.26964754  0.28773460    -0.06100
C1618       C  0.61950068  0.28706153  0.29060160    -0.15700
C1619       C  0.60124771  0.28906393  0.27730068    -0.01300
C1620       C  0.59774754  0.27365513  0.26127639    -0.08800
C1621       C  0.64681867  0.23760487  0.26757361     0.65500
H1622       H  0.64701711  0.26825887  0.29799969     0.10900
C1623       C  0.58620415  0.30787319  0.27910860     0.63900
H1624       H  0.58430282  0.27504807  0.25054633     0.08300
F1625       F  0.65548256  0.23632043  0.18249291    -0.19200
F1626       F  0.63654838  0.26648049  0.18341704    -0.15400
F1627       F  0.62379771  0.23830584  0.16562976    -0.18900
F1628       F  0.56851226  0.23028236  0.25818970    -0.22300
F1629       F  0.59631082  0.21737651  0.27670276    -0.23800
F1630       F  0.57782216  0.19601790  0.25478451    -0.17800
F1631       F  0.57074948  0.30759722  0.26334257    -0.20200
F1632       F  0.59753808  0.32670802  0.27721066    -0.21400
F1633       F  0.57596407  0.30737797  0.29857918    -0.18600
F1634       F  0.66295527  0.23832388  0.28262960    -0.18700
F1635       F  0.65598446  0.24036021  0.24776248    -0.22500
F1636       F  0.63760109  0.21763453  0.26848527    -0.24100
C1637       C  0.27649735  0.88910000  0.24067253    -0.10900
C1638       C  0.25914139  0.87507515  0.24218995     0.11700
C1639       C  0.25660767  0.85861115  0.22695009    -0.02700
C1640       C  0.27207712  0.85636075  0.21103356    -0.05500
C1641       C  0.29016195  0.86955720  0.21014421    -0.16200
C1642       C  0.29247646  0.88633216  0.22517516     0.02700
C1643       C  0.24464116  0.87668795  0.26076501     0.12600
C1644       C  0.23801458  0.84301535  0.22784453     0.63300
H1645       H  0.27044227  0.84374773  0.19935512     0.12700
C1646       C  0.31215747  0.90045984  0.22572896     0.55400
H1647       H  0.27780673  0.90178337  0.25230131     0.08500
C1648       C  0.25037687  0.86834082  0.28088162    -0.05400
C1649       C  0.23444394  0.86585379  0.29633837    -0.06100
C1650       C  0.21304922  0.87122027  0.29229412    -0.15700
C1651       C  0.20781932  0.88150946  0.27276181    -0.01300
C1652       C  0.22395432  0.88430854  0.25744933    -0.08800
C1653       C  0.27306513  0.86144766  0.28580959     0.65500
H1654       H  0.23851292  0.85860309  0.31142602     0.10900
C1655       C  0.18545377  0.88921300  0.26763905     0.63900
H1656       H  0.22024213  0.89125298  0.24211197     0.08300
F1657       F  0.31209247  0.91407956  0.24308217    -0.19200
F1658       F  0.31300830  0.91273741  0.20748695    -0.15400
F1659       F  0.33028138  0.88803048  0.22709124    -0.18900
F1660       F  0.21907739  0.85367311  0.22447971    -0.22300
F1661       F  0.23742584  0.83316027  0.24752458    -0.23800
F1662       F  0.23960749  0.82729621  0.21245677    -0.17800
F1663       F  0.18507860  0.90178474  0.24952999    -0.20200
F1664       F  0.17771872  0.90128377  0.28434637    -0.21400
F1665       F  0.17213074  0.87199554  0.26406323    -0.18600
F1666       F  0.27486932  0.85275394  0.30599145    -0.18700
F1667       F  0.28653929  0.87886409  0.28482562    -0.22500
F1668       F  0.27964539  0.84629847  0.27126582    -0.24100
C1669       C  0.36443455  0.77930886  0.25450125    -0.10900
C1670       C  0.38077538  0.76438563  0.25195196     0.11700
C1671       C  0.39457913  0.76609281  0.23416406    -0.02700
C1672       C  0.39062269  0.78201989  0.21877411    -0.05500
C1673       C  0.37316692  0.79588128  0.22050662    -0.16200
C1674       C  0.36051316  0.79525212  0.23928979     0.02700
C1675       C  0.38007232  0.74513766  0.26585367     0.12600
C1676       C  0.41302377  0.75079562  0.23117516     0.63300
H1677       H  0.40039758  0.78291612  0.20460686     0.12700
C1678       C  0.34245878  0.81085007  0.24326129     0.55400
H1679       H  0.35382417  0.77756714  0.26798873     0.08500
C1680       C  0.38656426  0.74518532  0.28752215    -0.05400
C1681       C  0.38221827  0.72704697  0.30014437    -0.06100
C1682       C  0.37106177  0.70942567  0.29190057    -0.15700
C1683       C  0.36521978  0.70919006  0.27009435    -0.01300
C1684       C  0.36978967  0.72711140  0.25750062    -0.08800
C1685       C  0.39746037  0.76444796  0.29738695     0.65500
H1686       H  0.38655417  0.72690679  0.31685312     0.10900
C1687       C  0.35428081  0.69002436  0.26007969     0.63900
H1688       H  0.36459384  0.72755249  0.24103963     0.08300
F1689       F  0.33644915  0.81100312  0.26447537    -0.19200
F1690       F  0.32486504  0.80516990  0.23121818    -0.15400
F1691       F  0.34877164  0.83130718  0.23800382    -0.18900
F1692       F  0.40547380  0.73028562  0.22845352    -0.22300
F1693       F  0.42614743  0.75139308  0.24885812    -0.23800
F1694       F  0.42517957  0.75599096  0.21354226    -0.17800
F1695       F  0.33402911  0.68761864  0.26835635    -0.20200
F1696       F  0.36601271  0.67187666  0.26418078    -0.21400
F1697       F  0.35240891  0.69211357  0.23820596    -0.18600
F1698       F  0.40345573  0.76070735  0.31828644    -0.18700
F1699       F  0.38381375  0.78167092  0.29722475    -0.22500
F1700       F  0.41556151  0.76955744  0.28597910    -0.24100
C1701       C  0.25390544  0.13869736  0.77165820    -0.10900
C1702       C  0.26029633  0.12474535  0.75550334     0.11700
C1703       C  0.28034174  0.11459920  0.75670599    -0.02700
C1704       C  0.29333397  0.11857862  0.77457417    -0.05500
C1705       C  0.28739233  0.13340556  0.79023474    -0.16200
C1706       C  0.26728850  0.14360145  0.78889467     0.02700
C1707       C  0.24663329  0.12364264  0.73634919     0.12600
C1708       C  0.28837894  0.10064146  0.73868327     0.63300
H1709       H  0.30888617  0.11120730  0.77573438     0.12700
C1710       C  0.26012108  0.16006874  0.80511695     0.55400
H1711       H  0.23871163  0.14669947  0.76996528     0.08500
C1712       C  0.22752359  0.11163717  0.73579832    -0.05400
C1713       C  0.21317911  0.11501955  0.71891781    -0.06100
C1714       C  0.21724910  0.13042885  0.70327912    -0.15700
C1715       C  0.23720289  0.14107982  0.70290193    -0.01300
C1716       C  0.25153364  0.13756653  0.71965601    -0.08800
C1717       C  0.22148059  0.09669484  0.75378389     0.65500
H1718       H  0.19788510  0.10698185  0.71884791     0.10900
C1719       C  0.24317119  0.15678465  0.68549185     0.63900
H1720       H  0.26615991  0.14674165  0.72054818     0.08300
F1721       F  0.23869548  0.16481624  0.80294378    -0.19200
F1722       F  0.27153780  0.17872548  0.80232834    -0.15400
F1723       F  0.26332378  0.15253254  0.82556635    -0.18900
F1724       F  0.29174933  0.11293729  0.72074473    -0.22300
F1725       F  0.27359052  0.08498230  0.73395275    -0.23800
F1726       F  0.30739266  0.09079375  0.74388438    -0.17800
F1727       F  0.23333793  0.17610790  0.68917500    -0.20200
F1728       F  0.23699215  0.14903792  0.66577992    -0.21400
F1729       F  0.26497310  0.16021072  0.68487742    -0.18600
F1730       F  0.20425630  0.08396528  0.74832933    -0.18700
F1731       F  0.21611343  0.10843922  0.77159942    -0.22500
F1732       F  0.23834808  0.08349267  0.75874596    -0.24100
C1733       C  0.39220305  0.23833116  0.77247892    -0.10900
C1734       C  0.37592089  0.24444241  0.75847278     0.11700
C1735       C  0.35606033  0.23374871  0.75917611    -0.02700
C1736       C  0.35287354  0.21783566  0.77461188    -0.05500
C1737       C  0.36879693  0.21208482  0.78937960    -0.16200
C1738       C  0.38903538  0.22237694  0.78805485     0.02700
C1739       C  0.37941295  0.26281489  0.74384272     0.12600
C1740       C  0.33819203  0.23927616  0.74373656     0.63300
H1741       H  0.33765026  0.20972602  0.77525544     0.12700
C1742       C  0.40693141  0.21746702  0.80350166     0.55400
H1743       H  0.40732303  0.24659774  0.77138654     0.08500
C1744       C  0.37578871  0.28404637  0.75053430    -0.05400
C1745       C  0.37443911  0.30016825  0.73501412    -0.06100
C1746       C  0.37684375  0.29568143  0.71326496    -0.15700
C1747       C  0.38254147  0.27479963  0.70680092    -0.01300
C1748       C  0.38387008  0.25871751  0.72234676    -0.08800
C1749       C  0.37243538  0.28942365  0.77386546     0.65500
H1750       H  0.37017315  0.31622721  0.73962440     0.10900
C1751       C  0.38614961  0.26820277  0.68379821     0.63900
H1752       H  0.38711271  0.24248037  0.71745739     0.08300
F1753       F  0.42445101  0.23056254  0.80044774    -0.19200
F1754       F  0.41353299  0.19664704  0.80090598    -0.15400
F1755       F  0.39982208  0.22052753  0.82405258    -0.18900
F1756       F  0.34447679  0.23478970  0.72313109    -0.22300
F1757       F  0.33326245  0.26066511  0.74527200    -0.23800
F1758       F  0.31981781  0.22775081  0.74782404    -0.17800
F1759       F  0.40604285  0.25895193  0.68201757    -0.20200
F1760       F  0.38527839  0.28495980  0.66959166    -0.21400
F1761       F  0.37085115  0.25339798  0.67797361    -0.18600
F1762       F  0.36889406  0.31095837  0.77691159    -0.18700
F1763       F  0.39034576  0.28385213  0.78541144    -0.22500
F1764       F  0.35502627  0.27841507  0.78169355    -0.24100
C1765       C  0.40184605  0.06749804  0.79030546    -0.10900
C1766       C  0.42339514  0.06793657  0.79617823     0.11700
C1767       C  0.43069794  0.08362365  0.81071987    -0.02700
C1768       C  0.41597340  0.09840543  0.81890579    -0.05500
C1769       C  0.39423133  0.09768484  0.81347451    -0.16200
C1770       C  0.38693266  0.08175332  0.79902806     0.02700
C1771       C  0.43786163  0.05188138  0.78642104     0.12600
C1772       C  0.45385574  0.08461748  0.81778641     0.63300
H1773       H  0.42134061  0.11059387  0.82990038     0.12700
C1774       C  0.36365359  0.07976963  0.79250192     0.55400
H1775       H  0.39676450  0.05558777  0.77887895     0.08500
C1776       C  0.43732788  0.03009791  0.79229794    -0.05400
C1777       C  0.45035298  0.01562127  0.78121702    -0.06100
C1778       C  0.46438989  0.02233131  0.76513684    -0.15700
C1779       C  0.46605917  0.04439717  0.76044394    -0.01300
C1780       C  0.45201822  0.05862519  0.77053361    -0.08800
C1781       C  0.42326191  0.02220301  0.81033002     0.65500
H1782       H  0.44962675  0.99879844  0.78498988     0.10900
C1783       C  0.48336619  0.05322153  0.74598108     0.63900
H1784       H  0.45209292  0.07530951  0.76615621     0.08300
F1785       F  0.35159439  0.07344589  0.80980373    -0.19200
F1786       F  0.36071129  0.06479626  0.77655403    -0.15400
F1787       F  0.35627949  0.09909513  0.78498397    -0.18900
F1788       F  0.46671749  0.08993060  0.80076099    -0.22300
F1789       F  0.46006999  0.06507325  0.82574008    -0.23800
F1790       F  0.45705390  0.09969622  0.83358131    -0.17800
F1791       F  0.47888769  0.04859550  0.72494823    -0.20200
F1792       F  0.50285934  0.04453588  0.75144431    -0.21400
F1793       F  0.48513182  0.07512798  0.74784411    -0.18600
F1794       F  0.42727153  0.00109556  0.81521407    -0.18700
F1795       F  0.40205139  0.02391166  0.80468285    -0.22500
F1796       F  0.42697199  0.03415976  0.82847523    -0.24100
C1797       C  0.72345988  0.87397953  0.75326649    -0.10900
C1798       C  0.74419021  0.86780336  0.75865858     0.11700
C1799       C  0.74887764  0.86173598  0.77981457    -0.02700
C1800       C  0.73213720  0.86054315  0.79460351    -0.05500
C1801       C  0.71088582  0.86516201  0.78897643    -0.16200
C1802       C  0.70656824  0.87271922  0.76798365     0.02700
C1803       C  0.76040834  0.86642056  0.74150166     0.12600
C1804       C  0.77143302  0.85612317  0.78660125     0.63300
H1805       H  0.73556190  0.85518311  0.81061268     0.12700
C1806       C  0.68445293  0.87943250  0.76081248     0.55400
H1807       H  0.72048916  0.87899614  0.73703881     0.08500
C1808       C  0.76161576  0.84840159  0.72806774    -0.05400
C1809       C  0.77837309  0.84716683  0.71334448    -0.06100
C1810       C  0.79384164  0.86337259  0.71135682    -0.15700
C1811       C  0.79193304  0.88195752  0.72423192    -0.01300
C1812       C  0.77511964  0.88307426  0.73909831    -0.08800
C1813       C  0.74525204  0.83051577  0.72929544     0.65500
H1814       H  0.77944608  0.83331154  0.70314402     0.10900
C1815       C  0.80761126  0.90036538  0.72282458     0.63900
H1816       H  0.77345149  0.89686880  0.74930821     0.08300
F1817       F  0.67129961  0.86179424  0.75918553    -0.19200
F1818       F  0.68481788  0.88929607  0.74109994    -0.15400
F1819       F  0.67606821  0.89373861  0.77525744    -0.18900
F1820       F  0.78459794  0.87359539  0.78392371    -0.22300
F1821       F  0.77898112  0.83943306  0.77441640    -0.23800
F1822       F  0.77245041  0.85011509  0.80779018    -0.17800
F1823       F  0.80633468  0.90965117  0.70290060    -0.20200
F1824       F  0.82810454  0.89311164  0.72637310    -0.21400
F1825       F  0.80340324  0.91600080  0.73778514    -0.18600
F1826       F  0.75000289  0.81396255  0.71553730    -0.18700
F1827       F  0.72536377  0.83821715  0.72385837    -0.22500
F1828       F  0.74450165  0.82234542  0.74972097    -0.24100
C1829       C  0.64568832  0.75778194  0.76704507    -0.10900
C1830       C  0.62741159  0.75895117  0.75428467     0.11700
C1831       C  0.61070296  0.77293147  0.75995100    -0.02700
C1832       C  0.61388098  0.78696360  0.77724344    -0.05500
C1833       C  0.63272184  0.78650697  0.78935107    -0.16200
C1834       C  0.64871594  0.77137811  0.78453630     0.02700
C1835       C  0.62709703  0.74575999  0.73466899     0.12600
C1836       C  0.58972218  0.77283158  0.74789064     0.63300
H1837       H  0.60174843  0.79848648  0.78139241     0.12700
C1838       C  0.66932522  0.77022640  0.79723324     0.55400
H1839       H  0.65796325  0.74649181  0.76266391     0.08500
C1840       C  0.63873048  0.75191141  0.71635999    -0.05400
C1841       C  0.64139923  0.73706690  0.69983051    -0.06100
C1842       C  0.63318124  0.71629250  0.70125231    -0.15700
C1843       C  0.62007093  0.71074874  0.71884269    -0.01300
C1844       C  0.61748114  0.72561261  0.73543691    -0.08800
C1845       C  0.64919663  0.77371063  0.71474077     0.65500
H1846       H  0.65113047  0.74120539  0.68621508     0.10900
C1847       C  0.60893111  0.68929648  0.72033129     0.63900
H1848       H  0.60875253  0.72122358  0.74964105     0.08300
F1849       F  0.68329235  0.75538425  0.78889476    -0.19200
F1850       F  0.66492827  0.76444582  0.81800367    -0.15400
F1851       F  0.67940513  0.78984761  0.79709810    -0.18900
F1852       F  0.58026382  0.75299725  0.74961673    -0.22300
F1853       F  0.59313700  0.77728505  0.72661685    -0.23800
F1854       F  0.57566429  0.78777517  0.75588080    -0.17800
F1855       F  0.62349139  0.67368700  0.72562433    -0.20200
F1856       F  0.59941114  0.68429388  0.70105600    -0.21400
F1857       F  0.59315593  0.68940367  0.73571803    -0.18600
F1858       F  0.65777089  0.77721389  0.69474126    -0.18700
F1859       F  0.66546394  0.77539692  0.72951927    -0.22500
F1860       F  0.63436574  0.78947350  0.71856497    -0.24100
C1861       C  0.58402435  0.92088750  0.78726384    -0.10900
C1862       C  0.56649373  0.92594461  0.80003276     0.11700
C1863       C  0.56506768  0.91735562  0.82082294    -0.02700
C1864       C  0.58149490  0.90391921  0.82813336    -0.05500
C1865       C  0.59914704  0.89871325  0.81533817    -0.16200
C1866       C  0.60065114  0.90779788  0.79459543     0.02700
C1867       C  0.54970949  0.93984586  0.79068929     0.12600
C1868       C  0.54624014  0.92225536  0.83517087     0.63300
H1869       H  0.58038032  0.89694879  0.84385057     0.12700
C1870       C  0.61989313  0.90448128  0.78032263     0.55400
H1871       H  0.58451264  0.92734289  0.77128285     0.08500
C1872       C  0.55289676  0.96200773  0.78762422    -0.05400
C1873       C  0.53719957  0.97370888  0.77671882    -0.06100
C1874       C  0.51851478  0.96401962  0.76915364    -0.15700
C1875       C  0.51475267  0.94219319  0.77328118    -0.01300
C1876       C  0.53074939  0.93030008  0.78351665    -0.08800
C1877       C  0.57279280  0.97324897  0.79572130     0.65500
H1878       H  0.53956535  0.99051359  0.77358898     0.10900
C1879       C  0.49374980  0.93172878  0.76731150     0.63900
H1880       H  0.52868971  0.91332293  0.78578492     0.08300
F1881       F  0.61954308  0.91779978  0.76275636    -0.19200
F1882       F  0.62030830  0.88373815  0.77294308    -0.15400
F1883       F  0.63833032  0.90885963  0.79162081    -0.18900
F1884       F  0.52778640  0.91384866  0.82650855    -0.22300
F1885       F  0.54397133  0.94403655  0.83733915    -0.23800
F1886       F  0.54879935  0.91365274  0.85530438    -0.17800
F1887       F  0.49257425  0.91094091  0.77455485    -0.20200
F1888       F  0.49132564  0.93151411  0.74543453    -0.21400
F1889       F  0.47711841  0.94298231  0.77631196    -0.18600
F1890       F  0.57154845  0.99509291  0.79304184    -0.18700
F1891       F  0.59046944  0.96612552  0.78477866    -0.22500
F1892       F  0.57547758  0.96922106  0.81719957    -0.24100
C1893       C  0.72396919  0.04224350  0.06652977    -0.10900
C1894       C  0.71029782  0.05778661  0.05819358     0.11700
C1895       C  0.70747626  0.05934765  0.03584823    -0.02700
C1896       C  0.71851654  0.04509638  0.02254715    -0.05500
C1897       C  0.73237168  0.02969361  0.03086697    -0.16200
C1898       C  0.73494953  0.02793062  0.05324811     0.02700
C1899       C  0.70042792  0.07316201  0.07326258     0.12600
C1900       C  0.69302619  0.07608932  0.02609665     0.63300
H1901       H  0.71668594  0.04604484  0.00541361     0.12700
C1902       C  0.74892853  0.01087060  0.06314000     0.55400
H1903       H  0.72618133  0.04162350  0.08363308     0.08500
C1904       C  0.68198427  0.06822345  0.08528016    -0.05400
C1905       C  0.67382935  0.08370968  0.09935981    -0.06100
C1906       C  0.68372532  0.10366412  0.10189919    -0.15700
C1907       C  0.70274151  0.10814602  0.09050581    -0.01300
C1908       C  0.71067768  0.09277689  0.07629477    -0.08800
C1909       C  0.67122564  0.04660018  0.08344805     0.65500
H1910       H  0.65962945  0.08034943  0.10855067     0.10900
C1911       C  0.71520381  0.12862485  0.09403092     0.63900
H1912       H  0.72513215  0.09588559  0.06740739     0.08300
F1913       F  0.74368839  0.99113953  0.05480711    -0.19200
F1914       F  0.74638431  0.00987402  0.08501989    -0.15400
F1915       F  0.77011707  0.01519140  0.05902402    -0.18900
F1916       F  0.70054643  0.09621013  0.03099491    -0.22300
F1917       F  0.67259548  0.07387790  0.03396493    -0.23800
F1918       F  0.69203890  0.07432890  0.00413108    -0.17800
F1919       F  0.73459478  0.12843049  0.08355564    -0.20200
F1920       F  0.71922443  0.13129163  0.11554397    -0.21400
F1921       F  0.70368939  0.14576487  0.08650007    -0.18600
F1922       F  0.65305207  0.04536571  0.09584956    -0.18700
F1923       F  0.68506978  0.03087447  0.09012022    -0.22500
F1924       F  0.66545057  0.04270062  0.06255239    -0.24100
C1925       C  0.71396379  0.91991478  0.91536428    -0.10900
C1926       C  0.70067667  0.92773125  0.93139841     0.11700
C1927       C  0.67903167  0.92140587  0.93185745    -0.02700
C1928       C  0.67154489  0.90685592  0.91637611    -0.05500
C1929       C  0.68494919  0.89843221  0.90045460    -0.16200
C1930       C  0.70674019  0.90519769  0.89998717     0.02700
C1931       C  0.71009710  0.94282061  0.94722384     0.12600
C1932       C  0.66395525  0.93003442  0.94865345     0.63300
H1933       H  0.65503571  0.90184546  0.91674449     0.12700
C1934       C  0.72262837  0.89725983  0.88351260     0.55400
H1935       H  0.73034562  0.92537649  0.91523277     0.08500
C1936       C  0.72318428  0.93576085  0.96422514    -0.05400
C1937       C  0.73274947  0.95100627  0.97769291    -0.06100
C1938       C  0.72979962  0.97292430  0.97458898    -0.15700
C1939       C  0.71659004  0.98000721  0.95764250    -0.01300
C1940       C  0.70704471  0.96472739  0.94416292    -0.08800
C1941       C  0.72747099  0.91224740  0.96780955     0.65500
H1942       H  0.74308782  0.94595270  0.99055272     0.10900
C1943       C  0.71312220  0.00355485  0.95332860     0.63900
H1944       H  0.69731883  0.96975464  0.93082808     0.08300
F1945       F  0.74215547  0.90745745  0.88519190    -0.19200
F1946       F  0.71493404  0.90096698  0.86319133    -0.15400
F1947       F  0.72616881  0.87572136  0.88637987    -0.18900
F1948       F  0.66198330  0.95182534  0.94637032    -0.22300
F1949       F  0.67176644  0.92562996  0.96877011    -0.23800
F1950       F  0.64382302  0.92111184  0.94698883    -0.17800
F1951       F  0.73254587  0.01375442  0.95104820    -0.20200
F1952       F  0.70207471  0.01268234  0.96999443    -0.21400
F1953       F  0.70143427  0.00686375  0.93490444    -0.18600
F1954       F  0.73893141  0.90877410  0.98634254    -0.18700
F1955       F  0.73910799  0.90417481  0.95099242    -0.22500
F1956       F  0.70845543  0.90120298  0.96935836    -0.24100
C1957       C  0.27793457  0.96140297  0.06775613    -0.10900
C1958       C  0.28795303  0.94348710  0.05898979     0.11700
C1959       C  0.28707146  0.94005235  0.03667585    -0.02700
C1960       C  0.27599266  0.95476625  0.02385400    -0.05500
C1961       C  0.26577979  0.97254690  0.03266182    -0.16200
C1962       C  0.26699373  0.97618950  0.05491799     0.02700
C1963       C  0.29847446  0.92814618  0.07373421     0.12600
C1964       C  0.29774586  0.92091139  0.02648497     0.63300
H1965       H  0.27490208  0.95234702  0.00680414     0.12700
C1966       C  0.25716642  0.99583981  0.06496720     0.55400
H1967       H  0.27866469  0.96361793  0.08485175     0.08500
C1968       C  0.31911445  0.93172978  0.08223933    -0.05400
C1969       C  0.32786831  0.91650486  0.09624863    -0.06100
C1970       C  0.31674775  0.89786543  0.10169578    -0.15700
C1971       C  0.29605632  0.89439197  0.09325399    -0.01300
C1972       C  0.28716767  0.90978089  0.07959578    -0.08800
C1973       C  0.33163872  0.95172163  0.07684252     0.65500
H1974       H  0.34349878  0.91906962  0.10315992     0.10900
C1975       C  0.28339061  0.87456456  0.09875875     0.63900
H1976       H  0.27129291  0.90752121  0.07314662     0.08300
F1977       F  0.26520780  0.01391916  0.05527781    -0.19200
F1978       F  0.26161085  0.99714815  0.08653847    -0.15400
F1979       F  0.23528400  0.99538984  0.06253441    -0.18900
F1980       F  0.28869019  0.90232245  0.03404178    -0.22300
F1981       F  0.31925260  0.92094391  0.03125699    -0.23800
F1982       F  0.29560173  0.92102410  0.00453603    -0.17800
F1983       F  0.26296202  0.87513449  0.09040737    -0.20200
F1984       F  0.28177707  0.87253772  0.12063899    -0.21400
F1985       F  0.29358938  0.85695311  0.09047565    -0.18600
F1986       F  0.35218216  0.95098619  0.08487434    -0.18700
F1987       F  0.32157867  0.96927650  0.08543573    -0.22500
F1988       F  0.33298013  0.95418384  0.05501238    -0.24100
C1989       C  0.31182762  0.06538397  0.91904185    -0.10900
C1990       C  0.29398789  0.07204637  0.93075146     0.11700
C1991       C  0.28619887  0.09303805  0.92786934    -0.02700
C1992       C  0.29639159  0.10650945  0.91306862    -0.05500
C1993       C  0.31374092  0.09961102  0.90080520    -0.16200
C1994       C  0.32170831  0.07871140  0.90384181     0.02700
C1995       C  0.28370916  0.05668662  0.94584319     0.12600
C1996       C  0.26700276  0.10110944  0.94013999     0.63300
H1997       H  0.29062698  0.12257732  0.91066240     0.12700
C1998       C  0.34082262  0.07068683  0.89145066     0.55400
H1999       H  0.31780495  0.04945262  0.92175630     0.08500
C2000       C  0.27021660  0.03997702  0.93870542    -0.05400
C2001       C  0.26061466  0.02646007  0.95387999    -0.06100
C2002       C  0.26390413  0.02916595  0.97586448    -0.15700
C2003       C  0.27712477  0.04615351  0.98301987    -0.01300
C2004       C  0.28720932  0.05926941  0.96778601    -0.08800
C2005       C  0.26587985  0.03649901  0.91514987     0.65500
H2006       H  0.25041223  0.01352023  0.94867956     0.10900
C2007       C  0.27981541  0.05117275  0.00656002     0.63900
H2008       H  0.29774956  0.07196578  0.97291377     0.08300
F2009       F  0.33567420  0.06896427  0.87009879    -0.19200
F2010       F  0.34737964  0.05085942  0.89845674    -0.15400
F2011       F  0.35771446  0.08469766  0.89383302    -0.18900
F2012       F  0.27164164  0.10189168  0.96164625    -0.22300
F2013       F  0.24980013  0.08768897  0.93686495    -0.23800
F2014       F  0.26113692  0.12136787  0.93377143    -0.17800
F2015       F  0.29166009  0.03550310  0.01639516    -0.20200
F2016       F  0.26005453  0.05249139  0.01618573    -0.21400
F2017       F  0.29020847  0.07040224  0.00972588    -0.18600
F2018       F  0.25082595  0.02068965  0.91176326    -0.18700
F2019       F  0.28443923  0.03051273  0.90499809    -0.22500
F2020       F  0.25835337  0.05506146  0.90605376    -0.24100
C2021       C  0.53774299  0.06829414  0.22764778    -0.10900
C2022       C  0.55603632  0.06004550  0.21790063     0.11700
C2023       C  0.56017139  0.03788379  0.21882703    -0.02700
C2024       C  0.54545046  0.02459870  0.22927282    -0.05500
C2025       C  0.52703001  0.03284329  0.23872989    -0.16200
C2026       C  0.52288776  0.05496252  0.23782006     0.02700
C2027       C  0.57076475  0.07510770  0.20713457     0.12600
C2028       C  0.57993468  0.02831237  0.20872386     0.63300
H2029       H  0.54822867  0.00761497  0.23027930     0.12700
C2030       C  0.50260607  0.06428781  0.24705481     0.55400
H2031       H  0.53514851  0.08532486  0.22707208     0.08500
C2032       C  0.56631188  0.08368544  0.18675692    -0.05400
C2033       C  0.58122655  0.09764725  0.17748826    -0.06100
C2034       C  0.60041877  0.10286754  0.18778750    -0.15700
C2035       C  0.60471667  0.09440548  0.20829197    -0.01300
C2036       C  0.58952074  0.08095983  0.21778161    -0.08800
C2037       C  0.54591303  0.07812902  0.17490650     0.65500
H2038       H  0.57807769  0.10454557  0.16199806     0.10900
C2039       C  0.62514851  0.09959584  0.22019325     0.63900
H2040       H  0.59230049  0.07453990  0.23354604     0.08300
F2041       F  0.48508624  0.05446370  0.23789207    -0.19200
F2042       F  0.50109615  0.08594272  0.24326163    -0.15400
F2043       F  0.50210369  0.06117953  0.26883278    -0.18900
F2044       F  0.59803875  0.03630865  0.21845019    -0.22300
F2045       F  0.58047098  0.03321653  0.18727253    -0.23800
F2046       F  0.58032142  0.00636514  0.21071759    -0.17800
F2047       F  0.62788304  0.12143005  0.22147202    -0.20200
F2048       F  0.64218492  0.09065597  0.20956384    -0.21400
F2049       F  0.62502514  0.09158689  0.24073242    -0.18600
F2050       F  0.54552982  0.08687954  0.15468135    -0.18700
F2051       F  0.52853557  0.08583208  0.18594857    -0.22500
F2052       F  0.54403473  0.05628057  0.17288237    -0.24100
C2053       C  0.43308881  0.92304394  0.18695898    -0.10900
C2054       C  0.42692110  0.93255276  0.20618752     0.11700
C2055       C  0.40678616  0.92775700  0.21511886    -0.02700
C2056       C  0.39393704  0.91242887  0.20500817    -0.05500
C2057       C  0.40051966  0.90216605  0.18629727    -0.16200
C2058       C  0.42012220  0.90785994  0.17671900     0.02700
C2059       C  0.44213108  0.94722790  0.21675178     0.12600
C2060       C  0.39885798  0.93888968  0.23507471     0.63300
H2061       H  0.37863131  0.90815488  0.21175494     0.12700
C2062       C  0.42693332  0.89853141  0.15549742     0.55400
H2063       H  0.44834760  0.92745435  0.18020386     0.08500
C2064       C  0.45896772  0.93952523  0.22959640    -0.05400
C2065       C  0.47288267  0.95429433  0.23911552    -0.06100
C2066       C  0.47042271  0.97630974  0.23617725    -0.15700
C2067       C  0.45347193  0.98401026  0.22335450    -0.01300
C2068       C  0.43972226  0.96917263  0.21359739    -0.08800
C2069       C  0.46214895  0.91581941  0.23324320     0.65500
H2070       H  0.48584104  0.94878110  0.24909296     0.10900
C2071       C  0.44943354  0.00767663  0.22045633     0.63900
H2072       H  0.42683126  0.97456522  0.20347058     0.08300
F2073       F  0.44542078  0.90796779  0.14800215    -0.19200
F2074       F  0.41105832  0.90172486  0.14052622    -0.15400
F2075       F  0.43064822  0.87695817  0.15760053    -0.18900
F2076       F  0.39661122  0.96040749  0.23110027    -0.22300
F2077       F  0.41315876  0.93612617  0.25160296    -0.23800
F2078       F  0.37927947  0.93104296  0.24157798    -0.17800
F2079       F  0.43017419  0.01145020  0.21036877    -0.20200
F2080       F  0.46534425  0.01659093  0.20815759    -0.21400
F2081       F  0.44892061  0.01772017  0.24006392    -0.18600
F2082       F  0.47872037  0.91186092  0.24726308    -0.18700
F2083       F  0.46680273  0.90591055  0.21415692    -0.22500
F2084       F  0.44384777  0.90688827  0.24164512    -0.24100
C2085       C  0.52766961  0.78906615  0.93511672    -0.10900
C2086       C  0.54963845  0.78752508  0.93886153     0.11700
C2087       C  0.55715387  0.77580369  0.95661808    -0.02700
C2088       C  0.54228079  0.76526484  0.96964557    -0.05500
C2089       C  0.52032466  0.76649765  0.96571873    -0.16200
C2090       C  0.51276741  0.77865538  0.94825448     0.02700
C2091       C  0.56451201  0.79794918  0.92367072     0.12600
C2092       C  0.58076762  0.77446914  0.96179574     0.63300
H2093       H  0.54765008  0.75604247  0.98318991     0.12700
C2094       C  0.48915306  0.78042839  0.94334409     0.55400
H2095       H  0.52231733  0.79847796  0.92169857     0.08500
C2096       C  0.56964859  0.78855402  0.90385654    -0.05400
C2097       C  0.58514740  0.79838529  0.89105322    -0.06100
C2098       C  0.59565060  0.81719826  0.89735847    -0.15700
C2099       C  0.59008758  0.82685795  0.91705771    -0.01300
C2100       C  0.57426517  0.81715026  0.92968992    -0.08800
C2101       C  0.55889461  0.76817750  0.89629072     0.65500
H2102       H  0.58922496  0.79134311  0.87586455     0.10900
C2103       C  0.60131773  0.84668426  0.92530717     0.63900
H2104       H  0.56968011  0.82419911  0.94472821     0.08300
F2105       F  0.48546909  0.79108918  0.92439950    -0.19200
F2106       F  0.47913305  0.79154870  0.95942416    -0.15400
F2107       F  0.48021506  0.76033851  0.94166129    -0.18900
F2108       F  0.58846078  0.79445477  0.96699652    -0.22300
F2109       F  0.59183378  0.76675218  0.94441906    -0.23800
F2110       F  0.58467897  0.76111442  0.97888129    -0.17800
F2111       F  0.59641165  0.86390088  0.91252007    -0.20200
F2112       F  0.62312757  0.84351789  0.92537520    -0.21400
F2113       F  0.59523448  0.85162185  0.94591120    -0.18600
F2114       F  0.56753734  0.76082525  0.87739701    -0.18700
F2115       F  0.53745247  0.77184726  0.89289441    -0.22500
F2116       F  0.56121129  0.75235975  0.91141397    -0.24100
C2117       C  0.43537210  0.78250127  0.03811323    -0.10900
C2118       C  0.44522283  0.78697204  0.05770273     0.11700
C2119       C  0.46646238  0.78030444  0.06136973    -0.02700
C2120       C  0.47743979  0.76993624  0.04481614    -0.05500
C2121       C  0.46757092  0.76552593  0.02523087    -0.16200
C2122       C  0.44620672  0.77172378  0.02175506     0.02700
C2123       C  0.43230944  0.79751861  0.07445539     0.12600
C2124       C  0.47722723  0.78360818  0.08281951     0.63300
H2125       H  0.49372543  0.76473950  0.04715880     0.12700
C2126       C  0.43498793  0.76683760  0.00088722     0.55400
H2127       H  0.41896577  0.78734532  0.03586643     0.08500
C2128       C  0.42896702  0.81982977  0.07482910    -0.05400
C2129       C  0.41531646  0.82841198  0.09043339    -0.06100
C2130       C  0.40524460  0.81535269  0.10550391    -0.15700
C2131       C  0.40889932  0.79313740  0.10531497    -0.01300
C2132       C  0.42229592  0.78454825  0.08960650    -0.08800
C2133       C  0.43941052  0.83436328  0.05855276     0.65500
H2134       H  0.41208642  0.84534752  0.09077283     0.10900
C2135       C  0.39822215  0.77858541  0.12139053     0.63900
H2136       H  0.42488764  0.76751700  0.08882031     0.08300
F2137       F  0.43449123  0.74507926  0.99755021    -0.19200
F2138       F  0.44576285  0.77645712  0.98429911    -0.15400
F2139       F  0.41421221  0.77417846  0.00075981    -0.18900
F2140       F  0.46674917  0.77185344  0.09819414    -0.22300
F2141       F  0.47673417  0.80487516  0.08845257    -0.23800
F2142       F  0.49831652  0.77721098  0.08251837    -0.17800
F2143       F  0.37632090  0.78052086  0.11984407    -0.20200
F2144       F  0.40463328  0.78413702  0.14173983    -0.21400
F2145       F  0.40342091  0.75743288  0.11809721    -0.18600
F2146       F  0.43554842  0.85562311  0.06287576    -0.18700
F2147       F  0.43153070  0.82985270  0.03847440    -0.22500
F2148       F  0.46122358  0.83138433  0.05857036    -0.24100
C2149       C  0.58761320  0.21702417  0.07728831    -0.10900
C2150       C  0.57250830  0.20412767  0.06705306     0.11700
C2151       C  0.57197917  0.18195573  0.07113196    -0.02700
C2152       C  0.58600764  0.17358103  0.08652014    -0.05500
C2153       C  0.60091651  0.18659556  0.09697660    -0.16200
C2154       C  0.60196872  0.20860780  0.09221160     0.02700
C2155       C  0.55773197  0.21453672  0.05190553     0.12600
C2156       C  0.55709755  0.16725114  0.05888993     0.63300
H2157       H  0.58571070  0.15674496  0.09027559     0.12700
C2158       C  0.61780491  0.22321202  0.10331017     0.55400
H2159       H  0.58792136  0.23386459  0.07353461     0.08500
C2160       C  0.53884760  0.22467355  0.05887062    -0.05400
C2161       C  0.52612320  0.23518726  0.04375030    -0.06100
C2162       C  0.53206444  0.23622946  0.02227928    -0.15700
C2163       C  0.55117415  0.22655185  0.01539891    -0.01300
C2164       C  0.56373665  0.21571915  0.03043667    -0.08800
C2165       C  0.53249996  0.22486884  0.08221682     0.65500
H2166       H  0.51149607  0.24291798  0.04857281     0.10900
C2167       C  0.55840218  0.22816119  0.99240358     0.63900
H2168       H  0.57853753  0.20830837  0.02565128     0.08300
F2169       F  0.61486339  0.22209878  0.12509061    -0.19200
F2170       F  0.61538704  0.24423139  0.09714674    -0.15400
F2171       F  0.63837022  0.21708135  0.09845815    -0.18900
F2172       F  0.56207964  0.16792096  0.03746365    -0.22300
F2173       F  0.53618556  0.17351905  0.06152392    -0.23800
F2174       F  0.55881708  0.14635549  0.06567036    -0.17800
F2175       F  0.56056937  0.24935480  0.98681651    -0.20200
F2176       F  0.54355710  0.21862324  0.97916010    -0.21400
F2177       F  0.57781001  0.21824874  0.98920159    -0.18600
F2178       F  0.51302417  0.23468537  0.08530770    -0.18700
F2179       F  0.54764385  0.23581275  0.09394376    -0.22500
F2180       F  0.53096182  0.20431224  0.08988357    -0.24100
C2181       C  0.43044473  0.20638033  0.90692126    -0.10900
C2182       C  0.43284209  0.19705200  0.92699400     0.11700
C2183       C  0.42040138  0.17902111  0.93247056    -0.02700
C2184       C  0.40542191  0.17126418  0.91756557    -0.05500
C2185       C  0.40310553  0.18058272  0.89734334    -0.16200
C2186       C  0.41623409  0.19814323  0.89171139     0.02700
C2187       C  0.44766086  0.20763739  0.94214738     0.12600
C2188       C  0.42292789  0.16810278  0.95389755     0.63300
H2189       H  0.39532760  0.15783867  0.92161293     0.12700
C2190       C  0.41486496  0.20866749  0.87001978     0.55400
H2191       H  0.43988020  0.22039604  0.90330991     0.08500
C2192       C  0.47007994  0.20694038  0.93952441    -0.05400
C2193       C  0.48290218  0.21969022  0.95280483    -0.06100
C2194       C  0.47401845  0.23283413  0.96849800    -0.15700
C2195       C  0.45172427  0.23268166  0.97186410    -0.01300
C2196       C  0.43884231  0.22038438  0.95821682    -0.08800
C2197       C  0.48043673  0.19284796  0.92282051     0.65500
H2198       H  0.50005321  0.21975516  0.95087249     0.10900
C2199       C  0.44164826  0.24501427  0.99004016     0.63900
H2200       H  0.42166361  0.22093538  0.95971475     0.08300
F2201       F  0.42164142  0.19458856  0.85451284    -0.19200
F2202       F  0.42757249  0.22667919  0.86871939    -0.15400
F2203       F  0.39405464  0.21467265  0.86603067    -0.18900
F2204       F  0.41610964  0.18143336  0.97000128    -0.22300
F2205       F  0.44408676  0.16303677  0.95730598    -0.23800
F2206       F  0.41115755  0.14945589  0.95497433    -0.17800
F2207       F  0.42018520  0.24031772  0.99213350    -0.20200
F2208       F  0.44360843  0.26662960  0.98649233    -0.21400
F2209       F  0.45162120  0.23987101  0.00901489    -0.18600
F2210       F  0.50243068  0.19289089  0.92464515    -0.18700
F2211       F  0.47531373  0.19993780  0.90263654    -0.22500
F2212       F  0.47342373  0.17209666  0.92513401    -0.24100
C2213       C  0.12563173  0.75247753  0.27813874    -0.10900
C2214       C  0.13538001  0.75585782  0.25840373     0.11700
C2215       C  0.14523352  0.77567905  0.25402949    -0.02700
C2216       C  0.14597720  0.79113745  0.27023464    -0.05500
C2217       C  0.13755702  0.78727852  0.29063209    -0.16200
C2218       C  0.12679761  0.76769288  0.29456562     0.02700
C2219       C  0.13608693  0.73792260  0.24301769     0.12600
C2220       C  0.15543998  0.78025296  0.23255057     0.63300
H2221       H  0.15399112  0.80614149  0.26729820     0.12700
C2222       C  0.11644784  0.76269982  0.31581918     0.55400
H2223       H  0.11775945  0.73734574  0.28081479     0.08500
C2224       C  0.15065837  0.72093548  0.24548159    -0.05400
C2225       C  0.15185116  0.70550027  0.22937290    -0.06100
C2226       C  0.13947162  0.70678152  0.21074769    -0.15700
C2227       C  0.12459051  0.72363486  0.20849028    -0.01300
C2228       C  0.12273335  0.73857380  0.22511444    -0.08800
C2229       C  0.16528214  0.71934621  0.26475557     0.65500
H2230       H  0.16294748  0.69242687  0.23100347     0.10900
C2231       C  0.11184160  0.72683439  0.18817550     0.63900
H2232       H  0.11142606  0.75150554  0.22389587     0.08300
F2233       F  0.13193087  0.75942068  0.33115786    -0.19200
F2234       F  0.10396371  0.74450851  0.31483314    -0.15400
F2235       F  0.10349062  0.77940914  0.32179921    -0.18900
F2236       F  0.14009344  0.77995217  0.21673738    -0.22300
F2237       F  0.17069326  0.76504861  0.22809132    -0.23800
F2238       F  0.16523248  0.80002860  0.23211063    -0.17800
F2239       F  0.09772485  0.71013287  0.18534797    -0.20200
F2240       F  0.12556888  0.72793957  0.17100413    -0.21400
F2241       F  0.10016914  0.74550239  0.18863833    -0.18600
F2242       F  0.17941122  0.70254170  0.26299481    -0.18700
F2243       F  0.15333445  0.71619092  0.28294711    -0.22500
F2244       F  0.17706687  0.73786442  0.26689782    -0.24100
C2245       C  0.26736498  0.77095944  0.11422396    -0.10900
C2246       C  0.26756342  0.75305698  0.12751136     0.11700
C2247       C  0.28461360  0.74995478  0.14193475    -0.02700
C2248       C  0.30023046  0.76589202  0.14367193    -0.05500
C2249       C  0.29922154  0.78466290  0.13157883    -0.16200
C2250       C  0.28287474  0.78707832  0.11614905     0.02700
C2251       C  0.24886817  0.73864341  0.12727642     0.12600
C2252       C  0.28597053  0.73018173  0.15581538     0.63300
H2253       H  0.31300513  0.76420535  0.15517526     0.12700
C2254       C  0.28096186  0.80709963  0.10283222     0.55400
H2255       H  0.25429067  0.77267052  0.10307722     0.08500
C2256       C  0.23071633  0.74290261  0.13990095    -0.05400
C2257       C  0.21465646  0.72734908  0.14113303    -0.06100
C2258       C  0.21595319  0.70817119  0.12970885    -0.15700
C2259       C  0.23346013  0.70459102  0.11596798    -0.01300
C2260       C  0.24975652  0.72001867  0.11501176    -0.08800
C2261       C  0.22845902  0.76368165  0.15215283     0.65500
H2262       H  0.20103261  0.72986069  0.15138901     0.10900
C2263       C  0.23536011  0.68424155  0.10315416     0.63900
H2264       H  0.26366713  0.71741577  0.10518006     0.08300
F2265       F  0.26290580  0.80686747  0.09012876    -0.19200
F2266       F  0.29851532  0.80897754  0.08968074    -0.15400
F2267       F  0.27976793  0.82464782  0.11608370    -0.18900
F2268       F  0.28741688  0.71229708  0.14306467    -0.22300
F2269       F  0.26804731  0.72850655  0.16847183    -0.23800
F2270       F  0.30363653  0.73064322  0.16906271    -0.17800
F2271       F  0.21859846  0.68286732  0.08890211    -0.20200
F2272       F  0.23491049  0.66689687  0.11668878    -0.21400
F2273       F  0.25416000  0.68351240  0.09167790    -0.18600
F2274       F  0.20966329  0.76439736  0.16363632    -0.18700
F2275       F  0.22844721  0.78059264  0.13807639    -0.22500
F2276       F  0.24519362  0.76614601  0.16630043    -0.24100
C2277       C  0.25081647  0.61707829  0.21508342    -0.10900
C2278       C  0.24414216  0.61146615  0.23565825     0.11700
C2279       C  0.22225005  0.60709151  0.23937059    -0.02700
C2280       C  0.20752775  0.61076504  0.22287615    -0.05500
C2281       C  0.21413224  0.61809467  0.20288606    -0.16200
C2282       C  0.23612421  0.61999895  0.19842243     0.02700
C2283       C  0.25940695  0.61517662  0.25338792     0.12600
C2284       C  0.21347887  0.59947152  0.26055542     0.63300
H2285       H  0.19062815  0.60899474  0.22600954     0.12700
C2286       C  0.24389960  0.62532465  0.17617316     0.55400
H2287       H  0.26750118  0.62063478  0.21248891     0.08500
C2288       C  0.27724139  0.60203000  0.25734450    -0.05400
C2289       C  0.29168939  0.60801386  0.27349674    -0.06100
C2290       C  0.28865533  0.62648441  0.28581366    -0.15700
C2291       C  0.26995728  0.63887431  0.28262567    -0.01300
C2292       C  0.25591549  0.63311890  0.26615835    -0.08800
C2293       C  0.28071553  0.58162284  0.24489268     0.65500
H2294       H  0.30575906  0.59847456  0.27633012     0.10900
C2295       C  0.26431248  0.65780581  0.29666763     0.63900
H2296       H  0.24202511  0.64280082  0.26288931     0.08300
F2297       F  0.26589336  0.62441183  0.17477745    -0.19200
F2298       F  0.23754302  0.64559568  0.17050213    -0.15400
F2299       F  0.23546570  0.61081985  0.16183201    -0.18900
F2300       F  0.20030272  0.61495144  0.26895877    -0.22300
F2301       F  0.22919164  0.59488501  0.27529968    -0.23800
F2302       F  0.20169200  0.58110188  0.25731189    -0.17800
F2303       F  0.27763916  0.67479245  0.29221437    -0.20200
F2304       F  0.26622509  0.65229340  0.31791855    -0.21400
F2305       F  0.24354907  0.66446911  0.29337345    -0.18600
F2306       F  0.29777472  0.57010349  0.25277060    -0.18700
F2307       F  0.28478394  0.58623270  0.22377974    -0.22500
F2308       F  0.26269923  0.56895674  0.24617687    -0.24100
C2309       C  0.88160100  0.26569370  0.22965146    -0.10900
C2310       C  0.87020757  0.26707085  0.24876073     0.11700
C2311       C  0.85803434  0.28551413  0.25311139    -0.02700
C2312       C  0.85625248  0.30128172  0.23726722    -0.05500
C2313       C  0.86632826  0.29918874  0.21740387    -0.16200
C2314       C  0.87994237  0.28150701  0.21383513     0.02700
C2315       C  0.87018597  0.24846139  0.26343151     0.12600
C2316       C  0.84680550  0.28834319  0.27433678     0.63300
H2317       H  0.84628550  0.31505598  0.24001356     0.12700
C2318       C  0.89250927  0.27908616  0.19339137     0.55400
H2319       H  0.89119581  0.25165376  0.22687825     0.08500
C2320       C  0.85635091  0.23089467  0.26012096    -0.05400
C2321       C  0.85538478  0.21488531  0.27571377    -0.06100
C2322       C  0.86745794  0.21603182  0.29452987    -0.15700
C2323       C  0.88203021  0.23312698  0.29740101    -0.01300
C2324       C  0.88330963  0.24898279  0.28154607    -0.08800
C2325       C  0.84232365  0.22926438  0.24041663     0.65500
H2326       H  0.84451050  0.20161553  0.27367294     0.10900
C2327       C  0.89624062  0.23462603  0.31693660     0.63900
H2328       H  0.89402992  0.26238192  0.28351455     0.08300
F2329       F  0.87890525  0.27307829  0.17713239    -0.19200
F2330       F  0.90817686  0.26372076  0.19524423    -0.15400
F2331       F  0.90237814  0.29813541  0.18825880    -0.18900
F2332       F  0.86176342  0.28943134  0.29049737    -0.22300
F2333       F  0.83324873  0.27136463  0.27809360    -0.23800
F2334       F  0.83486922  0.30682998  0.27490569    -0.17800
F2335       F  0.90683950  0.21557987  0.31993804    -0.20200
F2336       F  0.88407117  0.23907202  0.33470677    -0.21400
F2337       F  0.91137966  0.25057985  0.31489983    -0.18600
F2338       F  0.82924955  0.21146729  0.24096946    -0.18700
F2339       F  0.85492402  0.22784623  0.22244806    -0.22500
F2340       F  0.82946157  0.24702718  0.23883254    -0.24100
C2341       C  0.75314507  0.28307039  0.12224861    -0.10900
C2342       C  0.75603278  0.26359568  0.13265276     0.11700
C2343       C  0.77504535  0.25971807  0.14411496    -0.02700
C2344       C  0.79014844  0.27616734  0.14572412    -0.05500
C2345       C  0.78672977  0.29632089  0.13655909    -0.30200
C2346       C  0.76804315  0.29973741  0.12418251     0.02700
C2347       C  0.73811508  0.24821812  0.13273287     0.12600
C2348       C  0.77909535  0.23854104  0.15511967     0.63300
H2349       H  0.80449174  0.27359230  0.15496564     0.12700
C2350       C  0.76369823  0.32063689  0.11291248     0.55400
H2351       H  0.73857243  0.28537351  0.11328136     0.08500
C2352       C  0.72044892  0.25104078  0.14638900    -0.05400
C2353       C  0.70470213  0.23521203  0.14686000    -0.06100
C2354       C  0.70628110  0.21652740  0.13465024    -0.15700
C2355       C  0.72385684  0.21384888  0.12073868    -0.01300
C2356       C  0.73928637  0.23014182  0.11966559    -0.08800
C2357       C  0.71836059  0.27048208  0.16070554     0.65500
H2358       H  0.69109379  0.23712056  0.15724988     0.10900
C2359       C  0.72702004  0.19353345  0.10805884     0.63900
H2360       H  0.75284448  0.22860075  0.10914336     0.08300
F2361       F  0.75924090  0.33634219  0.12767898    -0.19200
F2362       F  0.74644950  0.31914374  0.09919517    -0.15400
F2363       F  0.78129161  0.32639332  0.10102223    -0.18900
F2364       F  0.77989336  0.22240115  0.14017256    -0.22300
F2365       F  0.76295331  0.23426956  0.16946678    -0.23800
F2366       F  0.79821727  0.23853076  0.16616511    -0.17800
F2367       F  0.74622545  0.19353766  0.09724397    -0.20200
F2368       F  0.71085007  0.19134775  0.09323481    -0.21400
F2369       F  0.72692351  0.17622008  0.12166135    -0.18600
F2370       F  0.70115595  0.26877038  0.17438526    -0.18700
F2371       F  0.71547481  0.28847189  0.14839387    -0.22500
F2372       F  0.73651314  0.27295223  0.17299431    -0.24100
C2373       C  0.72160688  0.39057997  0.26528629    -0.10900
C2374       C  0.73789247  0.37552424  0.26289813     0.11700
C2375       C  0.73865987  0.35766162  0.27658478    -0.02700
C2376       C  0.72204680  0.35464487  0.29118775    -0.05500
C2377       C  0.70495825  0.36897887  0.29285600    -0.16200
C2378       C  0.70498783  0.38767286  0.28012109     0.02700
C2379       C  0.75339295  0.37805475  0.24523138     0.12600
C2380       C  0.75685517  0.34173494  0.27568464     0.63300
H2381       H  0.72222070  0.34079774  0.30145921     0.12700
C2382       C  0.68740879  0.40414513  0.28160428     0.55400
H2383       H  0.72180201  0.40441794  0.25500628     0.08500
C2384       C  0.74847204  0.37133771  0.22429046    -0.05400
C2385       C  0.76488249  0.37075589  0.20912208    -0.06100
C2386       C  0.78602077  0.37645794  0.21422517    -0.15700
C2387       C  0.79045963  0.38484585  0.23487633    -0.01300
C2388       C  0.77386865  0.38563131  0.24994517    -0.08800
C2389       C  0.72611320  0.36417338  0.21818408     0.65500
H2390       H  0.76138622  0.36480019  0.19331511     0.10900
C2391       C  0.81246642  0.39267811  0.24139192     0.63900
H2392       H  0.77699111  0.39118528  0.26598950     0.08300
F2393       F  0.68972980  0.42002060  0.26648564    -0.19200
F2394       F  0.68787908  0.41364496  0.30147503    -0.15400
F2395       F  0.66779480  0.39454337  0.27840539    -0.18900
F2396       F  0.77577213  0.35174916  0.28101398    -0.22300
F2397       F  0.75851668  0.33330024  0.25541139    -0.23800
F2398       F  0.75389513  0.32502702  0.28976032    -0.17800
F2399       F  0.81201987  0.40347146  0.26062477    -0.20200
F2400       F  0.82034341  0.40652941  0.22617846    -0.21400
F2401       F  0.82611699  0.37558051  0.24368500    -0.18600
F2402       F  0.72485036  0.35794098  0.19705790    -0.18700
F2403       F  0.71196692  0.38073566  0.22112839    -0.22500
F2404       F  0.71998043  0.34710752  0.23067181    -0.24100
C2405       C  0.87346127  0.74615303  0.77548949    -0.10900
C2406       C  0.88632627  0.74047626  0.75825872     0.11700
C2407       C  0.89741918  0.72092862  0.75841966    -0.02700
C2408       C  0.89301469  0.70630928  0.77483898    -0.05500
C2409       C  0.87800544  0.71103313  0.79070712    -0.16200
C2410       C  0.86898134  0.73169511  0.79182252     0.02700
C2411       C  0.88553551  0.75445539  0.73939969     0.12600
C2412       C  0.91334081  0.71555232  0.74109674     0.63300
H2413       H  0.90028537  0.69068579  0.77469871     0.12700
C2414       C  0.85423379  0.73841717  0.80980948     0.55400
H2415       H  0.86566684  0.76153256  0.77521367     0.08500
C2416       C  0.86816580  0.75327322  0.72508647    -0.05400
C2417       C  0.86603511  0.76921075  0.70968900    -0.06100
C2418       C  0.88026733  0.78653176  0.70846162    -0.15700
C2419       C  0.89862014  0.78675878  0.72181607    -0.01300
C2420       C  0.90076004  0.77065868  0.73730296    -0.08800
C2421       C  0.85114993  0.73601847  0.72687345     0.65500
H2422       H  0.85245582  0.76872208  0.69902994     0.10900
C2423       C  0.91551212  0.80404309  0.72038449     0.63900
H2424       H  0.91388743  0.77102698  0.74852411     0.08300
F2425       F  0.83441257  0.72908497  0.80723405    -0.19200
F2426       F  0.85142494  0.76026784  0.81023616    -0.15400
F2427       F  0.86276793  0.73239505  0.82922151    -0.18900
F2428       F  0.92934790  0.73072570  0.74088652    -0.22300
F2429       F  0.90340217  0.71528045  0.72143120    -0.23800
F2430       F  0.92261619  0.69585425  0.74437892    -0.17800
F2431       F  0.93167401  0.80110391  0.73513055    -0.20200
F2432       F  0.90645768  0.82373030  0.72417587    -0.21400
F2433       F  0.92463395  0.80380019  0.70034995    -0.18600
F2434       F  0.83719111  0.73634797  0.70976917    -0.18700
F2435       F  0.83944153  0.73900674  0.74525217    -0.22500
F2436       F  0.86045292  0.71611477  0.72746799    -0.24100
C2437       C  0.74325552  0.77561740  0.88487109    -0.10900
C2438       C  0.74119984  0.75590042  0.87455989     0.11700
C2439       C  0.72179420  0.75068626  0.86421259    -0.02700
C2440       C  0.70584986  0.76631716  0.86272949    -0.05500
C2441       C  0.70874817  0.78689660  0.87109025    -0.16200
C2442       C  0.72737629  0.79137457  0.88324032     0.02700
C2443       C  0.76022503  0.74184833  0.87292952     0.12600
C2444       C  0.71822543  0.72893371  0.85417104     0.63300
H2445       H  0.69135772  0.76286956  0.85398178     0.12700
C2446       C  0.73069911  0.81262583  0.89434004     0.55400
H2447       H  0.75798280  0.77899562  0.89326651     0.08500
C2448       C  0.77636229  0.74580521  0.85767229    -0.05400
C2449       C  0.79254640  0.73061695  0.85493525    -0.06100
C2450       C  0.79303305  0.71160192  0.86671450    -0.15700
C2451       C  0.77722877  0.70796865  0.88247534    -0.01300
C2452       C  0.76130467  0.72348561  0.88559426    -0.08800
C2453       C  0.77614603  0.76570690  0.84388182     0.65500
H2454       H  0.80479234  0.73325731  0.84308957     0.10900
C2455       C  0.77634021  0.68733069  0.89503011     0.63900
H2456       H  0.74899606  0.72102462  0.89740333     0.08300
F2457       F  0.73532042  0.82820799  0.87950208    -0.19200
F2458       F  0.74742351  0.81184663  0.90873076    -0.15400
F2459       F  0.71251694  0.81816523  0.90545110    -0.18900
F2460       F  0.71914974  0.71336761  0.86968960    -0.22300
F2461       F  0.73370016  0.72503084  0.83902788    -0.23800
F2462       F  0.69851487  0.72743542  0.84433119    -0.17800
F2463       F  0.79403864  0.68579972  0.90807529    -0.20200
F2464       F  0.77582103  0.67017723  0.88118501    -0.21400
F2465       F  0.75839385  0.68618683  0.90776837    -0.18600
F2466       F  0.79275682  0.76592094  0.82940342    -0.18700
F2467       F  0.77811168  0.78361443  0.85655140    -0.22500
F2468       F  0.75725161  0.76677643  0.83256536    -0.24100
C2469       C  0.77904844  0.61681768  0.75110914    -0.10900
C2470       C  0.76200008  0.63118354  0.74993525     0.11700
C2471       C  0.75907610  0.64633389  0.76636035    -0.02700
C2472       C  0.77413917  0.64737459  0.78288853    -0.05500
C2473       C  0.79181185  0.63370096  0.78369264    -0.16200
C2474       C  0.79416918  0.61782133  0.76777267     0.02700
C2475       C  0.74779081  0.63083916  0.73096581     0.12600
C2476       C  0.74021330  0.66149456  0.76631430     0.63300
H2477       H  0.77237426  0.65921230  0.79532148     0.12700
C2478       C  0.81289195  0.60259215  0.76786771     0.55400
H2479       H  0.78066634  0.60512771  0.73852539     0.08500
C2480       C  0.75296708  0.64216811  0.71219038    -0.05400
C2481       C  0.73721646  0.64459872  0.69640859    -0.06100
C2482       C  0.71661350  0.63610427  0.69888175    -0.15700
C2483       C  0.71219402  0.62299009  0.71679554    -0.01300
C2484       C  0.72798824  0.62061924  0.73258311    -0.08800
C2485       C  0.77483669  0.65215108  0.70917373     0.65500
H2486       H  0.74060815  0.65409458  0.68242624     0.10900
C2487       C  0.69106420  0.61141514  0.71933811     0.63900
H2488       H  0.72463718  0.61157950  0.74688141     0.08300
F2489       F  0.81309759  0.58977355  0.74991731    -0.19200
F2490       F  0.81168438  0.58952324  0.78553512    -0.15400
F2491       F  0.83182504  0.61392378  0.76840746    -0.18900
F2492       F  0.72146380  0.65001686  0.76797474    -0.22300
F2493       F  0.73987563  0.67316699  0.74765870    -0.23800
F2494       F  0.74105533  0.67569690  0.78317688    -0.17800
F2495       F  0.69194617  0.59632588  0.73537896    -0.20200
F2496       F  0.68584398  0.60101261  0.70059532    -0.21400
F2497       F  0.67518852  0.62573877  0.72443838    -0.18600
F2498       F  0.77651787  0.66255030  0.68981211    -0.18700
F2499       F  0.79025477  0.63649032  0.70980303    -0.22500
F2500       F  0.77881269  0.66679225  0.72516151    -0.24100
C2501       C  0.06804697  0.72194797  0.03532891    -0.10900
C2502       C  0.05971266  0.70999321  0.05225681     0.11700
C2503       C  0.03731974  0.70878073  0.05505242    -0.02700
C2504       C  0.02403417  0.72025199  0.04107244    -0.05500
C2505       C  0.03244213  0.73274628  0.02456135    -0.16200
C2506       C  0.05474740  0.73302412  0.02108644     0.02700
C2507       C  0.07494845  0.70040768  0.06772108     0.12600
C2508       C  0.02750084  0.69568443  0.07286693     0.63300
H2509       H  0.00689908  0.71993758  0.04319367     0.12700
C2510       C  0.06443820  0.74460475  0.00220022     0.55400
H2511       H  0.08520501  0.72284184  0.03358478     0.08500
C2512       C  0.08719143  0.68207308  0.06302185    -0.05400
C2513       C  0.10223953  0.67498783  0.07812924    -0.06100
C2514       C  0.10462535  0.68498578  0.09802407    -0.15700
C2515       C  0.09172429  0.70288795  0.10297226    -0.01300
C2516       C  0.07762430  0.71064334  0.08737763    -0.08800
C2517       C  0.08402129  0.66976011  0.04242298     0.65500
H2518       H  0.11198686  0.66120113  0.07470340     0.10900
C2519       C  0.09291991  0.71405128  0.12442090     0.63900
H2520       H  0.06827612  0.72478106  0.09047265     0.08300
F2521       F  0.05418845  0.73849309  0.98363474    -0.19200
F2522       F  0.08588451  0.74003593  0.99994243    -0.15400
F2523       F  0.06241064  0.76634216  0.00483608    -0.18900
F2524       F  0.03199405  0.70498173  0.09232040    -0.22300
F2525       F  0.03561737  0.67524866  0.07261494    -0.23800
F2526       F  0.00557478  0.69422696  0.07081942    -0.17800
F2527       F  0.11374867  0.71986531  0.12872753    -0.20200
F2528       F  0.08554702  0.70060002  0.14020940    -0.21400
F2529       F  0.08056694  0.73227687  0.12493818    -0.18600
F2530       F  0.09628223  0.65147408  0.04187273    -0.18700
F2531       F  0.08964807  0.68224443  0.02521972    -0.22500
F2532       F  0.06289605  0.66378216  0.04040414    -0.24100
C2533       C  0.96731372  0.70995834  0.93886939    -0.10900
C2534       C  0.94541499  0.71359724  0.94117917     0.11700
C2535       C  0.93806822  0.72703947  0.95770368    -0.02700
C2536       C  0.95313394  0.73666871  0.97130715    -0.05500
C2537       C  0.97511442  0.73331662  0.96881438    -0.16200
C2538       C  0.98244209  0.71999140  0.95210174     0.02700
C2539       C  0.93063255  0.70339117  0.92568350     0.12600
C2540       C  0.91444888  0.73114880  0.96094227     0.63300
H2541       H  0.94787307  0.74697782  0.98409494     0.12700
C2542       C  0.00603485  0.71714711  0.94747747     0.55400
H2543       H  0.97247445  0.69943756  0.92621270     0.08500
C2544       C  0.92747538  0.71181219  0.90499539    -0.05400
C2545       C  0.91329063  0.70129710  0.89111917    -0.06100
C2546       C  0.90209283  0.68296548  0.89738231    -0.15700
C2547       C  0.90557945  0.67430938  0.91792078    -0.01300
C2548       C  0.92002185  0.68465092  0.93171420    -0.08800
C2549       C  0.93884952  0.73193973  0.89771849     0.65500
H2550       H  0.91049836  0.70756187  0.87528081     0.10900
C2551       C  0.89452130  0.65399660  0.92500071     0.63900
H2552       H  0.92304320  0.67829671  0.94746969     0.08300
F2553       F  0.01589283  0.73682595  0.94610713    -0.19200
F2554       F  0.00934021  0.70658424  0.92840635    -0.15400
F2555       F  0.01555524  0.70537244  0.96340938    -0.18900
F2556       F  0.90428054  0.71238440  0.96637784    -0.22300
F2557       F  0.90548692  0.73901515  0.94243555    -0.23800
F2558       F  0.91086426  0.74580475  0.97701798    -0.17800
F2559       F  0.90212279  0.64693462  0.94445670    -0.20200
F2560       F  0.89788643  0.63807457  0.91014781    -0.21400
F2561       F  0.87288988  0.65753197  0.92701237    -0.18600
F2562       F  0.93283265  0.73781056  0.87733349    -0.18700
F2563       F  0.96062503  0.72875617  0.89769253    -0.22500
F2564       F  0.93411777  0.74860398  0.91128707    -0.24100
C2565       C  0.12881762  0.24866421  0.78122632    -0.10900
C2566       C  0.12052257  0.25559506  0.76174362     0.11700
C2567       C  0.11095287  0.27590178  0.76021478    -0.02700
C2568       C  0.11291441  0.28997212  0.77762072    -0.05500
C2569       C  0.12374105  0.28385267  0.79620953    -0.16200
C2570       C  0.13059575  0.26251556  0.79863828     0.02700
C2571       C  0.12406256  0.24177078  0.74300194     0.12600
C2572       C  0.09901067  0.28254516  0.74027676     0.63300
H2573       H  0.10715558  0.30616930  0.77636587     0.12700
C2574       C  0.14029007  0.25453000  0.81932794     0.55400
H2575       H  0.13529468  0.23271529  0.78220312     0.08500
C2576       C  0.14359413  0.24239175  0.73180952    -0.05400
C2577       C  0.14712362  0.22729086  0.71573817    -0.06100
C2578       C  0.13211867  0.21129978  0.71085693    -0.15700
C2579       C  0.11244611  0.21081160  0.72211711    -0.01300
C2580       C  0.10881027  0.22622517  0.73803165    -0.08800
C2581       C  0.16092589  0.25856325  0.73723207     0.65500
H2582       H  0.16199684  0.22767381  0.70704279     0.10900
C2583       C  0.09567582  0.19376131  0.71816555     0.63900
H2584       H  0.09422040  0.22596997  0.74720799     0.08300
F2585       F  0.16057513  0.26276679  0.82190348    -0.19200
F2586       F  0.14173964  0.23253980  0.81960852    -0.15400
F2587       F  0.12773417  0.26067847  0.83633407    -0.18900
F2588       F  0.08260979  0.26829386  0.73642414    -0.22300
F2589       F  0.11253284  0.28269767  0.72293719    -0.23800
F2590       F  0.09027414  0.30265200  0.74235744    -0.17800
F2591       F  0.07882770  0.19532200  0.73228181    -0.20200
F2592       F  0.10460854  0.17379204  0.72058677    -0.21400
F2593       F  0.08751235  0.19582042  0.69780467    -0.18600
F2594       F  0.17849011  0.25658140  0.72407645    -0.18700
F2595       F  0.16773938  0.25571337  0.75797968    -0.22500
F2596       F  0.15316545  0.27900247  0.73501928    -0.24100
C2597       C  0.25495761  0.21696646  0.89309923    -0.10900
C2598       C  0.25502052  0.23725189  0.88374153     0.11700
C2599       C  0.27311838  0.24419505  0.87220924    -0.02700
C2600       C  0.28990254  0.22982367  0.86888406    -0.05500
C2601       C  0.28927583  0.20900696  0.87694396    -0.16200
C2602       C  0.27184306  0.20254300  0.88979333     0.02700
C2603       C  0.23513270  0.25006391  0.88379651     0.12600
C2604       C  0.27433843  0.26649399  0.86286293     0.63300
H2605       H  0.30344384  0.23450047  0.85926255     0.12700
C2606       C  0.27047937  0.18017394  0.89884573     0.55400
H2607       H  0.24102744  0.21215296  0.90207391     0.08500
C2608       C  0.21930615  0.24683652  0.86802778    -0.05400
C2609       C  0.20307785  0.26201563  0.86587502    -0.06100
C2610       C  0.20238314  0.28043268  0.87859964    -0.15700
C2611       C  0.21737133  0.28286509  0.89541787    -0.01300
C2612       C  0.23340118  0.26732398  0.89789293    -0.08800
C2613       C  0.22015325  0.22796211  0.85285101     0.65500
H2614       H  0.19126090  0.26010433  0.85342941     0.10900
C2615       C  0.21737719  0.30233049  0.90976844     0.63900
H2616       H  0.24556051  0.26920436  0.91001352     0.08300
F2617       F  0.27134621  0.16541534  0.88250094    -0.19200
F2618       F  0.25171422  0.17688267  0.90994632    -0.15400
F2619       F  0.28727372  0.17678401  0.91270356    -0.18900
F2620       F  0.27334440  0.28137589  0.87906233    -0.22300
F2621       F  0.25759512  0.26978171  0.84890986    -0.23800
F2622       F  0.29313474  0.26981641  0.85184533    -0.17800
F2623       F  0.19861109  0.30304391  0.92124803    -0.20200
F2624       F  0.21928546  0.32058575  0.89759104    -0.21400
F2625       F  0.23411815  0.30204124  0.92415624    -0.18600
F2626       F  0.20340672  0.22809048  0.83846032    -0.18700
F2627       F  0.21905864  0.20918751  0.86426725    -0.22500
F2628       F  0.23893735  0.22838928  0.84138328    -0.24100
C2629       C  0.24490995  0.35683410  0.78062023    -0.10900
C2630       C  0.23890631  0.36887251  0.76281165     0.11700
C2631       C  0.21793949  0.37705346  0.76137968    -0.02700
C2632       C  0.20364054  0.37301918  0.77816583    -0.05500
C2633       C  0.20942427  0.36030009  0.79559187    -0.16200
C2634       C  0.23045869  0.35224422  0.79707551     0.02700
C2635       C  0.25426832  0.37034949  0.74492437     0.12600
C2636       C  0.21054318  0.38941120  0.74194893     0.63300
H2637       H  0.18744924  0.37889409  0.77732175     0.12700
C2638       C  0.23763433  0.33876657  0.81584611     0.55400
H2639       H  0.26086252  0.35030179  0.78108199     0.08500
C2640       C  0.27205264  0.38430000  0.74518382    -0.05400
C2641       C  0.28720729  0.38280021  0.72867205    -0.06100
C2642       C  0.28509963  0.36757523  0.71240427    -0.15700
C2643       C  0.26653893  0.35459319  0.71152417    -0.01300
C2644       C  0.25165982  0.35598067  0.72808000    -0.08800
C2645       C  0.27541721  0.39999031  0.76328069     0.65500
H2646       H  0.30141474  0.39262620  0.72904012     0.10900
C2647       C  0.26232593  0.33916300  0.69328447     0.63900
H2648       H  0.23808438  0.34528183  0.72835846     0.08300
F2649       F  0.25946899  0.33566000  0.81582155    -0.19200
F2650       F  0.22789868  0.31900719  0.81496546    -0.15400
F2651       F  0.23230882  0.34871200  0.83476377    -0.18900
F2652       F  0.21075205  0.37638618  0.72419832    -0.22300
F2653       F  0.22389182  0.40659176  0.73847548    -0.23800
F2654       F  0.19002081  0.39703672  0.74441168    -0.17800
F2655       F  0.27487664  0.32124895  0.69554618    -0.20200
F2656       F  0.26674101  0.34885419  0.67399607    -0.21400
F2657       F  0.24123287  0.33264627  0.69280226    -0.18600
F2658       F  0.29219755  0.41374633  0.75922115    -0.18700
F2659       F  0.27984939  0.38906642  0.78186114    -0.22500
F2660       F  0.25728265  0.41207260  0.76621609    -0.24100
C2661       C  0.93807865  0.52954760  0.78517467    -0.10900
C2662       C  0.94264076  0.55135987  0.78344380     0.11700
C2663       C  0.96115937  0.55805099  0.77240011    -0.02700
C2664       C  0.97420178  0.54253957  0.76283577    -0.05500
C2665       C  0.96941475  0.52074620  0.76421070    -0.16200
C2666       C  0.95104002  0.51403712  0.77549045     0.02700
C2667       C  0.92754034  0.56683133  0.79315744     0.12600
C2668       C  0.96709736  0.58145553  0.77075027     0.63300
H2669       H  0.98834016  0.54728420  0.75416239     0.12700
C2670       C  0.94476387  0.49069971  0.77667758     0.55400
H2671       H  0.92399819  0.52481237  0.79394460     0.08500
C2672       C  0.90832788  0.57274567  0.78286942    -0.05400
C2673       C  0.89499008  0.58776596  0.79278814    -0.06100
C2674       C  0.90038301  0.59713745  0.81238466    -0.15700
C2675       C  0.91934729  0.59083468  0.82291696    -0.01300
C2676       C  0.93253455  0.57555638  0.81314396    -0.08800
C2677       C  0.90202714  0.56332440  0.76145344     0.65500
H2678       H  0.88030319  0.59261510  0.78511551     0.10900
C2679       C  0.92543263  0.59990356  0.84451663     0.63900
H2680       H  0.94709939  0.57048376  0.82089689     0.08300
F2681       F  0.92549604  0.48785043  0.78701295    -0.19200
F2682       F  0.96008193  0.47938980  0.78768293    -0.15400
F2683       F  0.94280371  0.48245221  0.75633541    -0.18900
F2684       F  0.97110465  0.58958336  0.79082964    -0.22300
F2685       F  0.95061480  0.59274020  0.76152497    -0.23800
F2686       F  0.98516288  0.58453764  0.75849970    -0.17800
F2687       F  0.94274662  0.58943655  0.85326183    -0.20200
F2688       F  0.90852509  0.59788265  0.85848807    -0.21400
F2689       F  0.93072911  0.62118215  0.84245703    -0.18600
F2690       F  0.88324832  0.57198585  0.75381399    -0.18700
F2691       F  0.89909557  0.54159675  0.76337894    -0.22500
F2692       F  0.91782416  0.56720452  0.74663190    -0.24100
C2693       C  0.03927610  0.42983374  0.77739498    -0.10900
C2694       C  0.05460182  0.43944361  0.79055630     0.11700
C2695       C  0.05549586  0.46193638  0.79205820    -0.02700
C2696       C  0.04109211  0.47409925  0.77986810    -0.05500
C2697       C  0.02596978  0.46446871  0.76637248    -0.16200
C2698       C  0.02454452  0.44191809  0.76562158     0.02700
C2699       C  0.07014177  0.42535866  0.80159576     0.12600
C2700       C  0.07173821  0.47300342  0.80625269     0.63300
H2701       H  0.04173488  0.49132918  0.78050061     0.12700
C2702       C  0.00726999  0.43050113  0.75298324     0.55400
H2703       H  0.03905254  0.41261149  0.77630865     0.08500
C2704       C  0.06478176  0.41362809  0.82010357    -0.05400
C2705       C  0.07993251  0.39950600  0.82870848    -0.06100
C2706       C  0.10001256  0.39663433  0.81930592    -0.15700
C2707       C  0.10523599  0.40820678  0.80058329    -0.01300
C2708       C  0.09013905  0.42245832  0.79213262    -0.08800
C2709       C  0.04305230  0.41575118  0.83050549     0.65500
H2710       H  0.07611022  0.39032745  0.84280360     0.10900
C2711       C  0.12613009  0.40476311  0.78887758     0.63900
H2712       H  0.09363467  0.43122512  0.77769347     0.08300
F2713       F  0.00584669  0.40921651  0.75854753    -0.19200
F2714       F  0.01169330  0.43156875  0.73147347    -0.15400
F2715       F  0.98765548  0.43970342  0.75687098    -0.18900
F2716       F  0.09205020  0.46927114  0.79868999    -0.22300
F2717       F  0.07024441  0.46537676  0.82683937    -0.23800
F2718       F  0.06859941  0.49480808  0.80687996    -0.17800
F2719       F  0.12677587  0.41574232  0.76977090    -0.20200
F2720       F  0.12868762  0.38334432  0.78442168    -0.21400
F2721       F  0.14297845  0.41180012  0.80125259    -0.18600
F2722       F  0.04163344  0.40390492  0.84903685    -0.18700
F2723       F  0.02737890  0.40865602  0.81671438    -0.22500
F2724       F  0.03920299  0.43679750  0.83560065    -0.24100
C2725       C  0.93590469  0.28786675  0.04171398    -0.10900
C2726       C  0.94342307  0.29270554  0.06218138     0.11700
C2727       C  0.96355370  0.28495601  0.06885483    -0.02700
C2728       C  0.97577782  0.27293362  0.05439591    -0.05500
C2729       C  0.96808957  0.26788558  0.03400043    -0.16200
C2730       C  0.94781762  0.27534156  0.02752393     0.02700
C2731       C  0.92836619  0.30304035  0.07718244     0.12600
C2732       C  0.97169742  0.28875342  0.09135117     0.63300
H2733       H  0.99121619  0.26682976  0.05909205     0.12700
C2734       C  0.93851040  0.26944581  0.00601416     0.55400
H2735       H  0.92016538  0.29335614  0.03726206     0.08500
C2736       C  0.92505619  0.32526658  0.07797667    -0.05400
C2737       C  0.91003058  0.33341146  0.09252833    -0.06100
C2738       C  0.89775158  0.32002821  0.10579543    -0.15700
C2739       C  0.90077931  0.29746438  0.10420362    -0.01300
C2740       C  0.91607762  0.28961478  0.08991853    -0.08800
C2741       C  0.93698096  0.34020279  0.06316544     0.65500
H2742       H  0.90761167  0.35043841  0.09337593     0.10900
C2743       C  0.88833068  0.28129196  0.11729353     0.63900
H2744       H  0.91865576  0.27263722  0.08839210     0.08300
F2745       F  0.95157443  0.27686816  0.99003143    -0.19200
F2746       F  0.91847319  0.27809788  0.00296962    -0.15400
F2747       F  0.93677196  0.24757318  0.00440885    -0.18900
F2748       F  0.95854051  0.27863147  0.10580732    -0.22300
F2749       F  0.97202052  0.31030372  0.09578624    -0.23800
F2750       F  0.99213687  0.28099105  0.09413271    -0.17800
F2751       F  0.89396743  0.26050339  0.11259643    -0.20200
F2752       F  0.86674674  0.28320133  0.11322466    -0.21400
F2753       F  0.89243469  0.28452594  0.13866708    -0.18600
F2754       F  0.93197639  0.36131843  0.06698162    -0.18700
F2755       F  0.93171935  0.33558570  0.04227357    -0.22500
F2756       F  0.95870025  0.33781874  0.06583610    -0.24100
C2757       C  0.07519729  0.30980251  0.93757638    -0.10900
C2758       C  0.06701164  0.28964099  0.93236502     0.11700
C2759       C  0.07230908  0.28021379  0.91257864    -0.02700
C2760       C  0.08615069  0.29122809  0.89879554    -0.05500
C2761       C  0.09498976  0.31103807  0.90434083    -0.16200
C2762       C  0.08940126  0.32061605  0.92398422     0.02700
C2763       C  0.05226338  0.27917624  0.94765913     0.12600
C2764       C  0.06354741  0.25854539  0.90616588     0.63300
H2765       H  0.09057997  0.28422311  0.88367695     0.12700
C2766       C  0.09809188  0.34226793  0.93037786     0.55400
H2767       H  0.07050752  0.31688882  0.95257608     0.08500
C2768       C  0.05963635  0.26839865  0.96605900    -0.05400
C2769       C  0.04457270  0.25929632  0.97997971    -0.06100
C2770       C  0.02259191  0.26094769  0.97618120    -0.15700
C2771       C  0.01529205  0.27147945  0.95759224    -0.01300
C2772       C  0.03033361  0.28065596  0.94377306    -0.08800
C2773       C  0.08326314  0.26669486  0.97102654     0.65500
H2774       H  0.04981759  0.25103890  0.99419834     0.10900
C2775       C  0.99177829  0.27345498  0.95243766     0.63900
H2776       H  0.02506740  0.28934560  0.92982102     0.08300
F2777       F  0.08902603  0.34956715  0.94908905    -0.19200
F2778       F  0.09384855  0.35694479  0.91452414    -0.15400
F2779       F  0.11984235  0.34098654  0.93349523    -0.18900
F2780       F  0.04162792  0.25948148  0.90430736    -0.22300
F2781       F  0.06882223  0.24353874  0.92136186    -0.23800
F2782       F  0.07166733  0.25180424  0.88682360    -0.17800
F2783       F  0.98848693  0.27992019  0.93161369    -0.20200
F2784       F  0.98282225  0.28844707  0.96573354    -0.21400
F2785       F  0.98156727  0.25408710  0.95510318    -0.18600
F2786       F  0.08699896  0.25456514  0.98904532    -0.18700
F2787       F  0.09169720  0.28675154  0.97449980    -0.22500
F2788       F  0.09380327  0.25728940  0.95417492    -0.24100
C2789       C  0.06132500  0.54485838  0.22089468    -0.10900
C2790       C  0.05408153  0.56478708  0.21394566     0.11700
C2791       C  0.03272927  0.57091758  0.21775351    -0.02700
C2792       C  0.01936369  0.55685004  0.22893220    -0.05500
C2793       C  0.02678585  0.53716050  0.23630810    -0.16200
C2794       C  0.04804260  0.53094121  0.23233217     0.02700
C2795       C  0.06956677  0.57904245  0.20325559     0.12600
C2796       C  0.02409520  0.59209494  0.20995742     0.63300
H2797       H  0.00290367  0.56103069  0.23194660     0.12700
C2798       C  0.05657187  0.50975623  0.24016532     0.55400
H2799       H  0.07766879  0.54047890  0.21756034     0.08500
C2800       C  0.08511103  0.59048922  0.21502468    -0.05400
C2801       C  0.10015047  0.60273002  0.20389194    -0.06100
C2802       C  0.09984241  0.60401906  0.18164378    -0.15700
C2803       C  0.08389752  0.59326150  0.16987699    -0.01300
C2804       C  0.06911884  0.58052923  0.18094493    -0.08800
C2805       C  0.08582794  0.58978191  0.23921097     0.65500
H2806       H  0.11240837  0.61138571  0.21248337     0.10900
C2807       C  0.08261731  0.59532893  0.14585262     0.63900
H2808       H  0.05715419  0.57154392  0.17229323     0.08300
F2809       F  0.07742153  0.50646985  0.23381159    -0.19200
F2810       F  0.04423444  0.49330473  0.23216237    -0.15400
F2811       F  0.05602780  0.50921277  0.26216758    -0.18900
F2812       F  0.02402743  0.59242779  0.18795119    -0.22300
F2813       F  0.03664670  0.60862577  0.21742408    -0.23800
F2814       F  0.00344811  0.59553347  0.21686456    -0.17800
F2815       F  0.06537289  0.58428927  0.13752636    -0.20200
F2816       F  0.10100147  0.58737278  0.13676777    -0.21400
F2817       F  0.08047401  0.61654010  0.14035337    -0.18600
F2818       F  0.10078653  0.60382335  0.24742252    -0.18700
F2819       F  0.09109363  0.56953268  0.24595370    -0.22500
F2820       F  0.06617929  0.59522467  0.24747124    -0.24100
C2821       C  0.93584835  0.47950655  0.20982532    -0.10900
C2822       C  0.93854887  0.45738950  0.21144385     0.11700
C2823       C  0.95582931  0.44910080  0.22337063    -0.02700
C2824       C  0.96955576  0.46336736  0.23383915    -0.05500
C2825       C  0.96652117  0.48542202  0.23275432    -0.16200
C2826       C  0.94945573  0.49379703  0.22060235     0.02700
C2827       C  0.92263406  0.44307702  0.20126178     0.12600
C2828       C  0.95960385  0.42528599  0.22529443     0.63300
H2829       H  0.98280056  0.45742240  0.24316740     0.12700
C2830       C  0.94515662  0.51756808  0.21975374     0.55400
H2831       H  0.92270076  0.48544347  0.20036885     0.08500
C2832       C  0.90273854  0.43871045  0.21088734    -0.05400
C2833       C  0.88962914  0.42289706  0.20187187    -0.06100
C2834       C  0.89568640  0.41147282  0.18357526    -0.15700
C2835       C  0.91539682  0.41643075  0.17356082    -0.01300
C2836       C  0.92834297  0.43249072  0.18248610    -0.08800
C2837       C  0.89544007  0.45063029  0.23064343     0.65500
H2838       H  0.87440652  0.41930902  0.20913594     0.10900
C2839       C  0.92337195  0.40430642  0.15421776     0.63900
H2840       H  0.94347990  0.43650605  0.17526281     0.08300
F2841       F  0.92671988  0.52211834  0.20852299    -0.19200
F2842       F  0.96185754  0.52796298  0.20987710    -0.15400
F2843       F  0.94286833  0.52544219  0.24020218    -0.18900
F2844       F  0.96436920  0.41685324  0.20554083    -0.22300
F2845       F  0.94158014  0.41538954  0.23321624    -0.23800
F2846       F  0.97641426  0.42073880  0.23884395    -0.17800
F2847       F  0.91064592  0.40873636  0.13678992    -0.20200
F2848       F  0.92300758  0.38265970  0.15828240    -0.21400
F2849       F  0.94409680  0.40985942  0.14904788    -0.18600
F2850       F  0.87627226  0.44283573  0.23830089    -0.18700
F2851       F  0.89267442  0.47191590  0.22582661    -0.22500
F2852       F  0.91045906  0.44877165  0.24667471    -0.24100
C2853       C  0.21399600  0.58488499  0.07300517    -0.10900
C2854       C  0.20282581  0.56576412  0.07006044     0.11700
C2855       C  0.18316606  0.56247062  0.08054695    -0.02700
C2856       C  0.17495893  0.57896115  0.09326881    -0.05500
C2857       C  0.18601185  0.59824701  0.09608133    -0.16200
C2858       C  0.20601285  0.60124516  0.08599166     0.02700
C2859       C  0.21276366  0.54924244  0.05649583     0.12600
C2860       C  0.17132677  0.54140694  0.07889709     0.63300
H2861       H  0.15999057  0.57675030  0.10155120     0.12700
C2862       C  0.21939140  0.62109356  0.08971120     0.55400
H2863       H  0.22924615  0.58674088  0.06515576     0.08500
C2864       C  0.21165032  0.55009702  0.03399627    -0.05400
C2865       C  0.22288941  0.53485102  0.02213075    -0.06100
C2866       C  0.23522518  0.51913019  0.03207625    -0.15700
C2867       C  0.23583215  0.51788812  0.05459837    -0.01300
C2868       C  0.22466047  0.53321502  0.06646964    -0.08800
C2869       C  0.19896144  0.56724208  0.02260933     0.65500
H2870       H  0.22261988  0.53539952  0.00488387     0.10900
C2871       C  0.24783329  0.50029629  0.06602778     0.63900
H2872       H  0.22539774  0.53305988  0.08371031     0.08300
F2873       F  0.20918190  0.63861297  0.08122648    -0.19200
F2874       F  0.23924167  0.61962383  0.08023804    -0.15400
F2875       F  0.22247370  0.62406416  0.11133481    -0.18900
F2876       F  0.18321013  0.52557196  0.08847100    -0.22300
F2877       F  0.16794962  0.53611534  0.05778780    -0.23800
F2878       F  0.15169150  0.54220191  0.08887457    -0.17800
F2879       F  0.24390407  0.50046014  0.08771994    -0.20200
F2880       F  0.26950851  0.50276288  0.06312673    -0.21400
F2881       F  0.24155786  0.48069366  0.05811097    -0.18600
F2882       F  0.19900677  0.56435968  0.00074454    -0.18700
F2883       F  0.20764280  0.58703142  0.02692214    -0.22500
F2884       F  0.17802993  0.56688539  0.02939831    -0.24100
C2885       C  0.22967552  0.42805294  0.96131726    -0.10900
C2886       C  0.21631722  0.43682390  0.94573329     0.11700
C2887       C  0.21232946  0.45899520  0.94566894    -0.02700
C2888       C  0.22347225  0.47199204  0.96019601    -0.05500
C2889       C  0.23742775  0.46330170  0.97534438    -0.16200
C2890       C  0.23994949  0.44091258  0.97657485     0.02700
C2891       C  0.20567950  0.42209718  0.93056840     0.12600
C2892       C  0.19590636  0.46871108  0.93080444     0.63300
H2893       H  0.22120648  0.48907767  0.96003824     0.12700
C2894       C  0.25235568  0.43058453  0.99459879     0.55400
H2895       H  0.23170739  0.41093864  0.96158877     0.08500
C2896       C  0.21555755  0.41541483  0.91145167    -0.05400
C2897       C  0.20437769  0.40143623  0.89788627    -0.06100
C2898       C  0.18429826  0.39324960  0.90342598    -0.15700
C2899       C  0.17472990  0.39948821  0.92286527    -0.01300
C2900       C  0.18560689  0.41400394  0.93607548    -0.08800
C2901       C  0.23801650  0.42249050  0.90579325     0.65500
H2902       H  0.21153291  0.39621923  0.88308473     0.10900
C2903       C  0.15310051  0.39101651  0.92955933     0.63900
H2904       H  0.17865670  0.41899853  0.95104665     0.08300
F2905       F  0.25050864  0.40861350  0.99419344    -0.19200
F2906       F  0.24457140  0.43767962  0.01393661    -0.15400
F2907       F  0.27372782  0.43564407  0.99313522    -0.18900
F2908       F  0.17603139  0.46025891  0.93520551    -0.22300
F2909       F  0.20102032  0.46436098  0.90985748    -0.23800
F2910       F  0.19470599  0.49059352  0.93317348    -0.17800
F2911       F  0.14564432  0.40108786  0.94768550    -0.20200
F2912       F  0.15460905  0.36950852  0.93388559    -0.21400
F2913       F  0.13841434  0.39419835  0.91342198    -0.18600
F2914       F  0.24442117  0.41449169  0.88627549    -0.18700
F2915       F  0.25213099  0.41530277  0.92109736    -0.22500
F2916       F  0.23911715  0.44444562  0.90485488    -0.24100
C2917       C  0.78442160  0.56524638  0.96153741    -0.10900
C2918       C  0.78232623  0.56087071  0.93973371     0.11700
C2919       C  0.77009577  0.54311162  0.93296880    -0.02700
C2920       C  0.76061574  0.53000661  0.94850304    -0.05500
C2921       C  0.76285917  0.53429138  0.97035806    -0.16200
C2922       C  0.77439799  0.55255546  0.97703792     0.02700
C2923       C  0.79311760  0.57526777  0.92435836     0.12600
C2924       C  0.76704175  0.53812047  0.90946966     0.63300
H2925       H  0.75137690  0.51620047  0.94372431     0.12700
C2926       C  0.77564396  0.55903686  0.00032098     0.55400
H2927       H  0.79394836  0.57885257  0.96632587     0.08500
C2928       C  0.78466957  0.59546359  0.91901931    -0.05400
C2929       C  0.79569955  0.60815877  0.90425116    -0.06100
C2930       C  0.81464638  0.60126073  0.89468370    -0.15700
C2931       C  0.82332316  0.58124449  0.90028838    -0.01300
C2932       C  0.81238545  0.56859049  0.91523904    -0.08800
C2933       C  0.76413170  0.60358790  0.92885863     0.65500
H2934       H  0.78952861  0.62367202  0.89992006     0.10900
C2935       C  0.84429991  0.57363392  0.89104962     0.63900
H2936       H  0.81874235  0.55326414  0.91992604     0.08300
F2937       F  0.78347874  0.57953762  0.00267373    -0.19200
F2938       F  0.78899663  0.54537654  0.01119767    -0.15400
F2939       F  0.75558492  0.55841071  0.00941548    -0.18900
F2940       F  0.78636682  0.53277188  0.90044711    -0.22300
F2941       F  0.75886516  0.55566678  0.89901515    -0.23800
F2942       F  0.75309467  0.52128004  0.90634814    -0.17800
F2943       F  0.85075963  0.55458204  0.90002803    -0.20200
F2944       F  0.86003062  0.58865512  0.89484040    -0.21400
F2945       F  0.84220557  0.57055111  0.86934497    -0.18600
F2946       F  0.75793202  0.62284198  0.92012482    -0.18700
F2947       F  0.76690797  0.60654856  0.95049665    -0.22500
F2948       F  0.74785769  0.58907618  0.92553122    -0.24100
C2949       C  0.77726666  0.47162636  0.06572551    -0.10900
C2950       C  0.78764325  0.45353548  0.05772163     0.11700
C2951       C  0.78737939  0.44954111  0.03546980    -0.02700
C2952       C  0.77614669  0.46355140  0.02204591    -0.05500
C2953       C  0.76535113  0.48130339  0.03013267    -0.16200
C2954       C  0.76645499  0.48590171  0.05219887     0.02700
C2955       C  0.79716583  0.43815113  0.07312554     0.12600
C2956       C  0.79880270  0.43050160  0.02593294     0.63300
H2957       H  0.77531089  0.46052859  0.00507659     0.12700
C2958       C  0.75668831  0.50604179  0.06127168     0.55400
H2959       H  0.77743690  0.47430393  0.08276317     0.08500
C2960       C  0.81695122  0.44168786  0.08347582    -0.05400
C2961       C  0.82480311  0.42598419  0.09755534    -0.06100
C2962       C  0.81334539  0.40714706  0.10182000    -0.15700
C2963       C  0.79354397  0.40371429  0.09121991    -0.01300
C2964       C  0.78572177  0.41949170  0.07740064    -0.08800
C2965       C  0.82952846  0.46205428  0.07985189     0.65500
H2966       H  0.83978632  0.42855768  0.10575869     0.10900
C2967       C  0.78094198  0.38318124  0.09365505     0.63900
H2968       H  0.77044610  0.41734935  0.06960975     0.08300
F2969       F  0.76122384  0.50842263  0.08273279    -0.19200
F2970       F  0.73480276  0.50552545  0.05889351    -0.15400
F2971       F  0.76474858  0.52359456  0.05066392    -0.18900
F2972       F  0.78930992  0.41182452  0.03268895    -0.22300
F2973       F  0.81993503  0.43061695  0.03218744    -0.23800
F2974       F  0.79819676  0.43076506  0.00388910    -0.17800
F2975       F  0.77187258  0.38225393  0.11368288    -0.20200
F2976       F  0.79430542  0.36597503  0.09071097    -0.21400
F2977       F  0.76466817  0.38159438  0.07880728    -0.18600
F2978       F  0.84907266  0.46163930  0.09010389    -0.18700
F2979       F  0.81822375  0.47924635  0.08759005    -0.22500
F2980       F  0.83315613  0.46492227  0.05833184    -0.24100
C2981       C  0.88049295  0.02238587  0.00536753    -0.10900
C2982       C  0.86910353  0.00393716  0.99994747     0.11700
C2983       C  0.88031355  0.98499463  0.99529483    -0.02700
C2984       C  0.90271611  0.98494624  0.99703957    -0.05500
C2985       C  0.91427636  0.00318252  0.00324069    -0.16200
C2986       C  0.90292439  0.02244444  0.00718448     0.02700
C2987       C  0.84534428  0.00465201  0.99996305     0.12600
C2988       C  0.86856397  0.96495110  0.98839552     0.63300
H2989       H  0.91139974  0.97044974  0.99376083     0.12700
C2990       C  0.91417076  0.04314219  0.01299855     0.55400
H2991       H  0.87150846  0.03671933  0.00860359     0.08500
C2992       C  0.83348911  0.00131145  0.01882606    -0.05400
C2993       C  0.81111691  0.00041059  0.01751640    -0.06100
C2994       C  0.80021029  0.00365279  0.99821917    -0.15700
C2995       C  0.81208004  0.00838384  0.97954365    -0.01300
C2996       C  0.83455985  0.00848322  0.98074304    -0.08800
C2997       C  0.84444759  0.99922133  0.04032082     0.65500
H2998       H  0.80183599  0.99739266  0.03173121     0.10900
C2999       C  0.80123359  0.01411447  0.95866206     0.63900
H3000       H  0.84398027  0.01148684  0.96661470     0.08300
F3001       F  0.92290255  0.04155781  0.03316893    -0.19200
F3002       F  0.90032012  0.06027006  0.01304355    -0.15400
F3003       F  0.93007694  0.04747522  0.99839068    -0.18900
F3004       F  0.85825046  0.96861437  0.96927713    -0.22300
F3005       F  0.85367691  0.95921496  0.00355724    -0.23800
F3006       F  0.88228089  0.94796176  0.98562746    -0.17800
F3007       F  0.81565611  0.02179011  0.94385898    -0.20200
F3008       F  0.78614846  0.02975573  0.96209334    -0.21400
F3009       F  0.79147075  0.99638789  0.94997167    -0.18600
F3010       F  0.83003701  0.99526342  0.05651716    -0.18700
F3011       F  0.85507363  0.01795503  0.04505909    -0.22500
F3012       F  0.85892744  0.98269237  0.03994489    -0.24100
C3013       C  0.01292825  0.88085244  0.01507835    -0.10900
C3014       C  0.99939647  0.87055508  0.00066446     0.11700
C3015       C  0.98472863  0.88260273  0.98858921    -0.02700
C3016       C  0.98448025  0.90490692  0.99108754    -0.05500
C3017       C  0.99832786  0.91559226  0.00529026    -0.16200
C3018       C  0.01292611  0.90314117  0.01763192     0.02700
C3019       C  0.00049747  0.84693151  0.99937203     0.12600
C3020       C  0.96936567  0.87188830  0.97317936     0.63300
H3021       H  0.97333998  0.91416408  0.98178587     0.12700
C3022       C  0.02868653  0.91279721  0.03341674     0.55400
H3023       H  0.02366516  0.87105379  0.02432765     0.08500
C3024       C  0.01585889  0.83631195  0.98673653    -0.05400
C3025       C  0.01598182  0.81386357  0.98652385    -0.06100
C3026       C  0.00184534  0.80199236  0.99911666    -0.15700
C3027       C  0.98712539  0.81263211  0.01241613    -0.01300
C3028       C  0.98660521  0.83503103  0.01219455    -0.08800
C3029       C  0.03250065  0.84863504  0.97420594     0.65500
H3030       H  0.02739087  0.80534438  0.97681335     0.10900
C3031       C  0.97224788  0.80028765  0.02691759     0.63900
H3032       H  0.97542065  0.84352399  0.02218674     0.08300
F3033       F  0.04100448  0.89748024  0.04337889    -0.19200
F3034       F  0.01781801  0.92365238  0.04915620    -0.15400
F3035       F  0.04245316  0.92645058  0.02293762    -0.18900
F3036       F  0.95614150  0.85811658  0.98414480    -0.22300
F3037       F  0.98055020  0.86051214  0.95805585    -0.23800
F3038       F  0.95671131  0.88652049  0.96263561    -0.17800
F3039       F  0.95968177  0.81366638  0.03908561    -0.20200
F3040       F  0.98402086  0.78771215  0.04062729    -0.21400
F3041       F  0.95896242  0.78745225  0.01485176    -0.18600
F3042       F  0.04487667  0.83531801  0.96178072    -0.18700
F3043       F  0.04582246  0.85935252  0.98814767    -0.22500
F3044       F  0.02283758  0.86323073  0.96089792    -0.24100
C3045       C  0.01925991  0.00868913  0.89080548    -0.10900
C3046       C  0.00311004  0.99836292  0.87937956     0.11700
C3047       C  0.98649510  0.98799113  0.89048211    -0.02700
C3048       C  0.98620495  0.98906148  0.91289706    -0.05500
C3049       C  0.00216218  0.99979969  0.92463358    -0.16200
C3050       C  0.01921078  0.00974257  0.91323201     0.02700
C3051       C  0.00411517  0.99884794  0.85569317     0.12600
C3052       C  0.96936922  0.97552273  0.87867584     0.63300
H3053       H  0.97339929  0.98129408  0.92141974     0.12700
C3054       C  0.03751823  0.02134274  0.92421989     0.55400
H3055       H  0.03193104  0.01614288  0.88179175     0.08500
C3056       C  0.99713409  0.01673347  0.84386233    -0.05400
C3057       C  0.99850002  0.01612471  0.82149265    -0.06100
C3058       C  0.00701381  0.99850718  0.81077886    -0.15700
C3059       C  0.01473267  0.98093689  0.82264077    -0.01300
C3060       C  0.01302345  0.98139047  0.84501623    -0.08800
C3061       C  0.98861818  0.03649722  0.85485499     0.65500
H3062       H  0.99304604  0.02951322  0.81210492     0.10900
C3063       C  0.02531237  0.96214647  0.81175725     0.63900
H3064       H  0.01876107  0.96814830  0.85444033     0.08300
F3065       F  0.05266621  0.02848938  0.90987793    -0.19200
F3066       F  0.04765637  0.00777501  0.93829637    -0.15400
F3067       F  0.02987324  0.03896025  0.93497188    -0.18900
F3068       F  0.97849316  0.95826630  0.86854467    -0.22300
F3069       F  0.95961087  0.98830999  0.86365856    -0.23800
F3070       F  0.95377745  0.96795411  0.89230652    -0.17800
F3071       F  0.03325521  0.94765775  0.82634199    -0.20200
F3072       F  0.04209586  0.96927489  0.79939674    -0.21400
F3073       F  0.01077248  0.95162229  0.79894604    -0.18600
F3074       F  0.98135905  0.05142721  0.84036734    -0.18700
F3075       F  0.00462328  0.04584181  0.86682232    -0.22500
F3076       F  0.97186452  0.03114547  0.86808864    -0.24100
C3077       C  0.01089214  0.11743592  0.00020762    -0.10900
C3078       C  0.99437708  0.12698800  0.01167685     0.11700
C3079       C  0.97899869  0.11406628  0.02184557    -0.02700
C3080       C  0.98117188  0.09179279  0.02076307    -0.05500
C3081       C  0.99792235  0.08192151  0.00952039    -0.16200
C3082       C  0.01310419  0.09514003  0.99887248     0.02700
C3083       C  0.99343704  0.15066807  0.01216184     0.12600
C3084       C  0.96018954  0.12376525  0.03352875     0.63300
H3085       H  0.96937935  0.08189535  0.02852438     0.12700
C3086       C  0.03164533  0.08622582  0.98611816     0.55400
H3087       H  0.02209621  0.12781269  0.99217324     0.08500
C3088       C  0.00668092  0.16296269  0.02578065    -0.05400
C3089       C  0.00566153  0.18535777  0.02457953    -0.06100
C3090       C  0.99213112  0.19560045  0.01004575    -0.15700
C3091       C  0.97878279  0.18329547  0.99659456    -0.01300
C3092       C  0.97973975  0.16094237  0.99783537    -0.08800
C3093       C  0.02215902  0.15243532  0.04110514     0.65500
H3094       H  0.01585248  0.19509861  0.03459458     0.10900
C3095       C  0.96371041  0.19381815  0.98093876     0.63900
H3096       H  0.97000990  0.15122166  0.98735806     0.08300
F3097       F  0.04477300  0.10213881  0.97827514    -0.19200
F3098       F  0.02400343  0.07479978  0.96885946    -0.15400
F3099       F  0.04399316  0.07323684  0.99891431    -0.18900
F3100       F  0.94732006  0.13445635  0.01923411    -0.22300
F3101       F  0.96731811  0.13790430  0.04886696    -0.23800
F3102       F  0.94788464  0.10843309  0.04354543    -0.17800
F3103       F  0.97520010  0.20565619  0.96636413    -0.20200
F3104       F  0.94993610  0.20706437  0.99178714    -0.21400
F3105       F  0.95162749  0.17902679  0.96983206    -0.18600
F3106       F  0.03215032  0.16717581  0.05417163    -0.18700
F3107       F  0.03769609  0.14178092  0.02977417    -0.22500
F3108       F  0.01148173  0.13807295  0.05393551    -0.24100
C3109       C  0.11632023  0.98812149  0.02491225    -0.10900
C3110       C  0.12682867  0.99621466  0.00697700     0.11700
C3111       C  0.11466458  0.00350884  0.98946972    -0.02700
C3112       C  0.09228142  0.00403971  0.99120162    -0.05500
C3113       C  0.08150927  0.99635592  0.00932596    -0.16200
C3114       C  0.09384826  0.98764588  0.02636057     0.02700
C3115       C  0.15064338  0.99683624  0.00691869     0.12600
C3116       C  0.12527944  0.00992941  0.96871835     0.63300
H3117       H  0.08295367  0.00989885  0.97795343     0.12700
C3118       C  0.08372268  0.97784365  0.04605704     0.55400
H3119       H  0.12602199  0.98200894  0.03777930     0.08500
C3120       C  0.16226586  0.01354868  0.01681949    -0.05400
C3121       C  0.18467826  0.01374768  0.01520603    -0.06100
C3122       C  0.19572429  0.99768546  0.00435634    -0.15700
C3123       C  0.18414325  0.98077016  0.99477155    -0.01300
C3124       C  0.16172132  0.98058812  0.99636014    -0.08800
C3125       C  0.15101159  0.03101893  0.02912102     0.65500
H3126       H  0.19386108  0.02636694  0.02264977     0.10900
C3127       C  0.19540019  0.96332409  0.98244478     0.63900
H3128       H  0.15256047  0.96782047  0.98916206     0.08300
F3129       F  0.07029227  0.99237855  0.05566504    -0.19200
F3130       F  0.09880335  0.97180910  0.06098891    -0.15400
F3131       F  0.07236527  0.95979113  0.04039595    -0.18900
F3132       F  0.13456126  0.99222746  0.95953337    -0.22300
F3133       F  0.14079864  0.02516307  0.97242519    -0.23800
F3134       F  0.11081821  0.01823136  0.95429362    -0.17800
F3135       F  0.20888608  0.95218251  0.99578435    -0.20200
F3136       F  0.20714121  0.97226296  0.96610208    -0.21400
F3137       F  0.18112933  0.94894374  0.97361525    -0.18600
F3138       F  0.16518476  0.04610888  0.03685250    -0.18700
F3139       F  0.14034081  0.02230511  0.04628296    -0.22500
F3140       F  0.13654717  0.04123713  0.01604685    -0.24100
C3141       C  0.01507701  0.00451610  0.16989199    -0.10900
C3142       C  0.99736943  0.99533949  0.15974629     0.11700
C3143       C  0.98130637  0.98540984  0.17210514    -0.02700
C3144       C  0.98297675  0.98611927  0.19448037    -0.05500
C3145       C  0.00048887  0.99570421  0.20464956    -0.16200
C3146       C  0.01697496  0.00484065  0.19223272     0.02700
C3147       C  0.99645381  0.99591527  0.13606973     0.12600
C3148       C  0.96264537  0.97397646  0.16166898     0.63300
H3149       H  0.97064891  0.97908065  0.20429272     0.12700
C3150       C  0.03642919  0.01493245  0.20252071     0.55400
H3151       H  0.02745804  0.01143166  0.16006347     0.08500
C3152       C  0.98962505  0.01414443  0.12475909    -0.05400
C3153       C  0.98951119  0.01356169  0.10231844    -0.06100
C3154       C  0.99623112  0.99549254  0.09087440    -0.15700
C3155       C  0.00287922  0.97711295  0.10243391    -0.01300
C3156       C  0.00310513  0.97788127  0.12484713    -0.08800
C3157       C  0.98273518  0.03419311  0.13639318     0.65500
H3158       H  0.98455827  0.02750839  0.09351833     0.10900
C3159       C  0.00923459  0.95647363  0.09150955     0.63900
H3160       H  0.00857778  0.96431482  0.13394627     0.08300
F3161       F  0.04948935  0.02467724  0.18767181    -0.19200
F3162       F  0.04819254  0.99942542  0.21272620    -0.15400
F3163       F  0.03022920  0.03018225  0.21713885    -0.18900
F3164       F  0.96999360  0.95685269  0.14997933    -0.22300
F3165       F  0.95188193  0.98769947  0.14826002    -0.23800
F3166       F  0.94831296  0.96632969  0.17656728    -0.17800
F3167       F  0.02837276  0.95918559  0.08095411    -0.20200
F3168       F  0.99352820  0.95039421  0.07723231    -0.21400
F3169       F  0.01184310  0.93999095  0.10590403    -0.18600
F3170       F  0.97565564  0.04973156  0.12246999    -0.18700
F3171       F  0.99971794  0.04247974  0.14777535    -0.22500
F3172       F  0.96632691  0.02952120  0.15029858    -0.24100
C3173       C  0.00870323  0.61594386  0.48668548    -0.10900
C3174       C  0.99814523  0.62692488  0.50296608     0.11700
C3175       C  0.98609923  0.61552484  0.51825880    -0.02700
C3176       C  0.98610425  0.59312671  0.51744443    -0.05500
C3177       C  0.99699825  0.58216707  0.50136993    -0.16200
C3178       C  0.00819198  0.59360119  0.48551639     0.02700
C3179       C  0.00039436  0.65040399  0.50380009     0.12600
C3180       C  0.97305664  0.62702473  0.53504249     0.63300
H3181       H  0.97737065  0.58396928  0.52916832     0.12700
C3182       C  0.01976778  0.58213469  0.46768281     0.55400
H3183       H  0.01748871  0.62507884  0.47498680     0.08500
C3184       C  0.01764928  0.66025604  0.51456606    -0.05400
C3185       C  0.01850605  0.68260907  0.51535806    -0.06100
C3186       C  0.00323873  0.69512642  0.50498020    -0.15700
C3187       C  0.98662081  0.68529672  0.49327868    -0.01300
C3188       C  0.98531283  0.66291890  0.49310032    -0.08800
C3189       C  0.03551898  0.64721147  0.52433875     0.65500
H3190       H  0.03138058  0.69056371  0.52371151     0.10900
C3191       C  0.97069004  0.69845747  0.48078630     0.63900
H3192       H  0.97258443  0.65496905  0.48452915     0.08300
F3193       F  0.03428363  0.56792896  0.47617302    -0.19200
F3194       F  0.03072643  0.59614764  0.45465829    -0.15400
F3195       F  0.00522893  0.57112841  0.45524728    -0.18900
F3196       F  0.95774588  0.63939195  0.52519931    -0.22300
F3197       F  0.98603669  0.63999905  0.54727392    -0.23800
F3198       F  0.96279675  0.61292485  0.54853942    -0.17800
F3199       F  0.98136219  0.71129937  0.46641620    -0.20200
F3200       F  0.95910500  0.71110660  0.49454497    -0.21400
F3201       F  0.95655812  0.68577700  0.46948090    -0.18600
F3202       F  0.04993222  0.65987262  0.53530030    -0.18700
F3203       F  0.04638712  0.63670636  0.50835935    -0.22500
F3204       F  0.02742810  0.63238074  0.53843872    -0.24100
C3205       C  0.83541224  0.49599129  0.51501057    -0.10900
C3206       C  0.84605873  0.50274691  0.49660818     0.11700
C3207       C  0.83417868  0.50852910  0.47831030    -0.02700
C3208       C  0.81178058  0.50752736  0.47919216    -0.05500
C3209       C  0.80109375  0.50091563  0.49765632    -0.16200
C3210       C  0.81302441  0.49506919  0.51594716     0.02700
C3211       C  0.86972852  0.50244425  0.49668135     0.12600
C3212       C  0.84512766  0.51543713  0.45788682     0.63300
H3213       H  0.80235187  0.51177777  0.46537393     0.12700
C3214       C  0.80226161  0.48763998  0.53626727     0.55400
H3215       H  0.84488895  0.49139427  0.52868280     0.08500
C3216       C  0.88205770  0.51895119  0.50600511    -0.05400
C3217       C  0.90441505  0.51722224  0.50572027    -0.06100
C3218       C  0.91457809  0.49956391  0.49663778    -0.15700
C3219       C  0.90227512  0.48333706  0.48689440    -0.01300
C3220       C  0.87992864  0.48487508  0.48746054    -0.08800
C3221       C  0.87168422  0.53814898  0.51638516     0.65500
H3222       H  0.91420692  0.52954551  0.51287398     0.10900
C3223       C  0.91274377  0.46498531  0.47525509     0.63900
H3224       H  0.87015321  0.47242618  0.48051336     0.08300
F3225       F  0.78803389  0.47137987  0.53177252    -0.19200
F3226       F  0.79152401  0.50442292  0.54548969    -0.15400
F3227       F  0.81683698  0.48010833  0.55100981    -0.18900
F3228       F  0.85660249  0.49864040  0.44956795    -0.22300
F3229       F  0.85884053  0.53222926  0.46192616    -0.23800
F3230       F  0.83061400  0.52197352  0.44262019    -0.17800
F3231       F  0.89788024  0.45167633  0.46574047    -0.20200
F3232       F  0.92461183  0.45304439  0.48939479    -0.21400
F3233       F  0.92595906  0.47286294  0.45948664    -0.18600
F3234       F  0.88664071  0.55305808  0.52291058    -0.18700
F3235       F  0.86025814  0.53174403  0.53405692    -0.22500
F3236       F  0.85804603  0.54796697  0.50217637    -0.24100
C3237       C  0.97838088  0.48036331  0.66273980    -0.10900
C3238       C  0.99568457  0.48833405  0.65104214     0.11700
C3239       C  0.01391676  0.49605472  0.66202685    -0.02700
C3240       C  0.01381958  0.49630200  0.68448478    -0.05500
C3241       C  0.99626016  0.48889233  0.69616003    -0.16200
C3242       C  0.97858637  0.47996700  0.68519480     0.02700
C3243       C  0.99399332  0.48933628  0.62733440     0.12600
C3244       C  0.03332658  0.50414154  0.65004483     0.63300
H3245       H  0.02736021  0.50266001  0.69316672     0.12700
C3246       C  0.96037083  0.46945431  0.69715986     0.55400
H3247       H  0.96457427  0.47457247  0.65409364     0.08500
C3248       C  0.99691045  0.47128074  0.61409425    -0.05400
C3249       C  0.99644323  0.47400171  0.59177129    -0.06100
C3250       C  0.99345059  0.49411814  0.58243816    -0.15700
C3251       C  0.98967979  0.51197675  0.59574576    -0.01300
C3252       C  0.98976205  0.50916011  0.61800076    -0.08800
C3253       C  0.00080727  0.44935356  0.62350251     0.65500
H3254       H  0.99893678  0.46046708  0.58137160     0.10900
C3255       C  0.98530255  0.53388776  0.58654548     0.63900
H3256       H  0.98707209  0.52263044  0.62843544     0.08300
F3257       F  0.96837667  0.45453162  0.71124041    -0.19200
F3258       F  0.94643500  0.45910530  0.68349291    -0.15400
F3259       F  0.94898022  0.48454784  0.70834058    -0.18900
F3260       F  0.02831333  0.52263464  0.63926118    -0.22300
F3261       F  0.04005041  0.48898095  0.63557821    -0.23800
F3262       F  0.05016283  0.50853062  0.66364911    -0.17800
F3263       F  0.96913805  0.53261123  0.57157829    -0.20200
F3264       F  0.00352798  0.54178977  0.57703909    -0.21400
F3265       F  0.97907897  0.54820575  0.60209862    -0.18600
F3266       F  0.00426217  0.43421025  0.60785701    -0.18700
F3267       F  0.98330773  0.44300015  0.63524016    -0.22500
F3268       F  0.01852129  0.44986491  0.63661972    -0.24100
C3269       C  0.15803973  0.48189091  0.49300744    -0.10900
C3270       C  0.14872777  0.50104151  0.49969209     0.11700
C3271       C  0.16191423  0.51824474  0.50614274    -0.02700
C3272       C  0.18418407  0.51586796  0.50490261    -0.05500
C3273       C  0.19345529  0.49682958  0.49784821    -0.16200
C3274       C  0.18028704  0.47952859  0.49174111     0.02700
C3275       C  0.12506964  0.50238112  0.50003180     0.12600
C3276       C  0.15251036  0.53892245  0.51439462     0.63300
H3277       H  0.19462243  0.52880893  0.50963067     0.12700
C3278       C  0.18970461  0.45886139  0.48352186     0.55400
H3279       H  0.14763817  0.46878942  0.48867211     0.08500
C3280       C  0.11294646  0.50511154  0.48118098    -0.05400
C3281       C  0.09059325  0.50560485  0.48270950    -0.06100
C3282       C  0.08007280  0.50357840  0.50234418    -0.15700
C3283       C  0.09225085  0.50083761  0.52121212    -0.01300
C3284       C  0.11462164  0.50004203  0.51961594    -0.08800
C3285       C  0.12354262  0.50747195  0.45955411     0.65500
H3286       H  0.08104302  0.50752057  0.46843991     0.10900
C3287       C  0.08177659  0.49798331  0.54280816     0.63900
H3288       H  0.12425553  0.49745606  0.53371306     0.08300
F3289       F  0.20327233  0.46304663  0.46669160    -0.19200
F3290       F  0.17408733  0.44494029  0.47641591    -0.15400
F3291       F  0.20094903  0.44888056  0.49958575    -0.18900
F3292       F  0.14151358  0.53517628  0.53307489    -0.22300
F3293       F  0.13871101  0.54736053  0.49945524    -0.23800
F3294       F  0.16812280  0.55396721  0.51864248    -0.17800
F3295       F  0.09653857  0.49358623  0.55861045    -0.20200
F3296       F  0.06741666  0.48124608  0.54199608    -0.21400
F3297       F  0.07124015  0.51643397  0.54846777    -0.18600
F3298       F  0.10880430  0.51094156  0.44349402    -0.18700
F3299       F  0.13464398  0.48917414  0.45456693    -0.22500
F3300       F  0.13749800  0.52454126  0.45989545    -0.24100
C3301       C  0.98778268  0.38243893  0.49179230    -0.10900
C3302       C  0.00824137  0.37368252  0.49321546     0.11700
C3303       C  0.02624761  0.38726575  0.49449563    -0.02700
C3304       C  0.02295382  0.40938876  0.49509846    -0.05500
C3305       C  0.00238604  0.41816007  0.49477079    -0.16200
C3306       C  0.98441908  0.40451268  0.49295931     0.02700
C3307       C  0.01008043  0.35015280  0.49370030     0.12600
C3308       C  0.04877134  0.37847860  0.49544224     0.63300
H3309       H  0.03649889  0.42008304  0.49619485     0.12700
C3310       C  0.96183944  0.41309209  0.49188792     0.55400
H3311       H  0.97434649  0.37166435  0.49024926     0.08500
C3312       C  0.00427363  0.33819544  0.51192859    -0.05400
C3313       C  0.00518160  0.31587398  0.51084072    -0.06100
C3314       C  0.01217974  0.30535779  0.49243182    -0.15700
C3315       C  0.01926032  0.31736894  0.47470245    -0.01300
C3316       C  0.01732737  0.33965397  0.47539313    -0.08800
C3317       C  0.99725317  0.34892833  0.53245302     0.65500
H3318       H  0.00018811  0.30636284  0.52433007     0.10900
C3319       C  0.02972545  0.30686325  0.45561738     0.63900
H3320       H  0.02149470  0.34910710  0.46159784     0.08300
F3321       F  0.94712882  0.39721975  0.48745507    -0.19200
F3322       F  0.96039627  0.42826436  0.47599743    -0.15400
F3323       F  0.95639241  0.42208102  0.51123069    -0.18900
F3324       F  0.05358422  0.36828519  0.47655169    -0.22300
F3325       F  0.05056610  0.36417022  0.51206690    -0.23800
F3326       F  0.06374930  0.39441973  0.49854575    -0.17800
F3327       F  0.03855016  0.32175272  0.44195084    -0.20200
F3328       F  0.01494666  0.29510327  0.44426493    -0.21400
F3329       F  0.04590791  0.29359794  0.46246417    -0.18600
F3330       F  0.99469207  0.33440590  0.54883267    -0.18700
F3331       F  0.97800027  0.35910221  0.52940927    -0.22500
F3332       F  0.01238644  0.36369222  0.53878865    -0.24100
C3333       C  0.01544068  0.51062767  0.38254783    -0.10900
C3334       C  0.99709193  0.50387418  0.37168776     0.11700
C3335       C  0.97951522  0.49575235  0.38324623    -0.02700
C3336       C  0.98050314  0.49576610  0.40564867    -0.05500
C3337       C  0.99879356  0.50271544  0.41654660    -0.16200
C3338       C  0.01667055  0.51009670  0.40491721     0.02700
C3339       C  0.99678178  0.50553442  0.34812638     0.12600
C3340       C  0.96008987  0.48668823  0.37190270     0.63300
H3341       H  0.96713979  0.48992670  0.41487740     0.12700
C3342       C  0.03668878  0.51791862  0.41611118     0.55400
H3343       H  0.02878479  0.51642917  0.37327119     0.08500
C3344       C  0.99085105  0.52458918  0.33766644    -0.05400
C3345       C  0.99044395  0.52489359  0.31527410    -0.06100
C3346       C  0.99627192  0.50700733  0.30327000    -0.15700
C3347       C  0.00306980  0.48822108  0.31374229    -0.01300
C3348       C  0.00304968  0.48778967  0.33614753    -0.08800
C3349       C  0.98555085  0.54462453  0.35012496     0.65500
H3350       H  0.98582112  0.53922645  0.30687782     0.10900
C3351       C  0.01089196  0.46899041  0.30134306     0.63900
H3352       H  0.00796712  0.47357400  0.34457422     0.08300
F3353       F  0.05144227  0.52604366  0.40188426    -0.19200
F3354       F  0.04616383  0.50127978  0.42693755    -0.15400
F3355       F  0.03153982  0.53386725  0.43039690    -0.18900
F3356       F  0.96599570  0.46914280  0.36000651    -0.22300
F3357       F  0.95133657  0.50176324  0.35849133    -0.23800
F3358       F  0.94448799  0.48032809  0.38611641    -0.17800
F3359       F  0.01898102  0.45342248  0.31467064    -0.20200
F3360       F  0.02691322  0.47508126  0.28750631    -0.21400
F3361       F  0.99430890  0.46010936  0.28983962    -0.18600
F3362       F  0.97915765  0.56103262  0.33688530    -0.18700
F3363       F  0.00336394  0.55136573  0.36125599    -0.22500
F3364       F  0.96925725  0.54064053  0.36436119    -0.24100
C3365       C  0.47894550  0.83884187  0.50515317    -0.10900
C3366       C  0.49571346  0.84868073  0.49412070     0.11700
C3367       C  0.51118263  0.83598850  0.48372705    -0.02700
C3368       C  0.50927026  0.81367573  0.48478894    -0.05500
C3369       C  0.49248562  0.80388691  0.49579803    -0.16200
C3370       C  0.47691298  0.81653787  0.50599947     0.02700
C3371       C  0.49724010  0.87231496  0.49478323     0.12600
C3372       C  0.52970015  0.84594980  0.47174773     0.63300
H3373       H  0.52102432  0.80360867  0.47721605     0.12700
C3374       C  0.45854909  0.80646847  0.51809289     0.55400
H3375       H  0.46755172  0.84886261  0.51331276     0.08500
C3376       C  0.48438594  0.88553571  0.48192138    -0.05400
C3377       C  0.48651025  0.90778732  0.48389886    -0.06100
C3378       C  0.50094261  0.91732243  0.49837946    -0.15700
C3379       C  0.51395394  0.90373837  0.51119868    -0.01300
C3380       C  0.51154169  0.88150705  0.50924100    -0.08800
C3381       C  0.46835194  0.87613857  0.46631951     0.65500
H3382       H  0.47658468  0.91790479  0.47412787     0.10900
C3383       C  0.53043500  0.91216526  0.52690984     0.63900
H3384       H  0.52087386  0.87088643  0.51909082     0.08300
F3385       F  0.44642051  0.79406589  0.50446674    -0.19200
F3386       F  0.44530482  0.82163873  0.52699591    -0.15400
F3387       F  0.46641116  0.79385133  0.53432520    -0.18900
F3388       F  0.54284022  0.85673811  0.48579214    -0.22300
F3389       F  0.52216496  0.86005135  0.45663676    -0.23800
F3390       F  0.54182797  0.83076841  0.46138215    -0.17800
F3391       F  0.54130869  0.89593652  0.53709620    -0.20200
F3392       F  0.52056697  0.92423564  0.54244603    -0.21400
F3393       F  0.54536416  0.92435288  0.51624857    -0.18600
F3394       F  0.45855936  0.89170371  0.45418936    -0.18700
F3395       F  0.45268466  0.86525452  0.47731266    -0.22500
F3396       F  0.47842523  0.86222410  0.45258544    -0.24100
C3397       C  0.62095493  0.98595952  0.51302831    -0.10900
C3398       C  0.63118420  0.00408645  0.50502753     0.11700
C3399       C  0.61897635  0.02030559  0.49534382    -0.02700
C3400       C  0.59659696  0.01845108  0.49536001    -0.05500
C3401       C  0.58604397  0.00052212  0.50389057    -0.16200
C3402       C  0.59861332  0.98360891  0.51237601     0.02700
C3403       C  0.65485766  0.00511722  0.50632293     0.12600
C3404       C  0.62959645  0.03925866  0.48465203     0.63300
H3405       H  0.58716542  0.03110433  0.48848816     0.12700
C3406       C  0.58892241  0.96276518  0.52001160     0.55400
H3407       H  0.63079983  0.97352073  0.51974873     0.08500
C3408       C  0.66564687  0.01176439  0.52502842    -0.05400
C3409       C  0.68811631  0.01173310  0.52523327    -0.06100
C3410       C  0.69996190  0.00554055  0.50731810    -0.15700
C3411       C  0.68906305  0.99898083  0.48854706    -0.01300
C3412       C  0.66662859  0.99861013  0.48855908    -0.08800
C3413       C  0.65342442  0.01868090  0.54469413     0.65500
H3414       H  0.69668482  0.01656473  0.53943765     0.10900
C3415       C  0.70089805  0.99218159  0.46860372     0.63900
H3416       H  0.65797112  0.99338161  0.47455232     0.08300
F3417       F  0.57708005  0.96615786  0.53824539    -0.19200
F3418       F  0.60433578  0.94777761  0.52481597    -0.15400
F3419       F  0.57609742  0.95428899  0.50417398    -0.18900
F3420       F  0.64167531  0.03231386  0.46763410    -0.22300
F3421       F  0.64269399  0.04977701  0.49894156    -0.23800
F3422       F  0.61482840  0.05369934  0.47699765    -0.17800
F3423       F  0.71584822  0.97684075  0.47360399    -0.20200
F3424       F  0.71092467  0.00957519  0.45960831    -0.21400
F3425       F  0.68726975  0.98371557  0.45341123    -0.18600
F3426       F  0.66690469  0.02592388  0.56062442    -0.18700
F3427       F  0.64187093  0.00168588  0.55261714    -0.22500
F3428       F  0.63957653  0.03498495  0.53960206    -0.24100
C3429       C  0.47859573  0.98083698  0.66256172    -0.10900
C3430       C  0.49710208  0.98967461  0.65360782     0.11700
C3431       C  0.51324891  0.99789198  0.66714159    -0.02700
C3432       C  0.51033740  0.99679229  0.68933427    -0.05500
C3433       C  0.49177449  0.98813205  0.69829727    -0.16200
C3434       C  0.47569591  0.97974628  0.68480072     0.02700
C3435       C  0.49850623  0.99143050  0.62999594     0.12600
C3436       C  0.53329052  0.00811724  0.65818162     0.63300
H3437       H  0.52240248  0.00313016  0.69997801     0.12700
C3438       C  0.45580356  0.96939614  0.69385380     0.55400
H3439       H  0.46630358  0.97499240  0.65190595     0.08500
C3440       C  0.50447995  0.97415397  0.61685135    -0.05400
C3441       C  0.50568628  0.97735363  0.59467788    -0.06100
C3442       C  0.50087732  0.99710102  0.58519705    -0.15700
C3443       C  0.49471464  0.01439684  0.59856891    -0.01300
C3444       C  0.49344700  0.01103475  0.62071106    -0.08800
C3445       C  0.50947859  0.95242116  0.62618495     0.65500
H3446       H  0.51012119  0.96419009  0.58449403     0.10900
C3447       C  0.48988766  0.03650476  0.58995635     0.63900
H3448       H  0.48850747  0.02381644  0.63116081     0.08300
F3449       F  0.46149308  0.95325794  0.70769877    -0.19200
F3450       F  0.44309357  0.96067850  0.67802196    -0.15400
F3451       F  0.44386207  0.98432183  0.70469052    -0.18900
F3452       F  0.52805625  0.02637277  0.64709763    -0.22300
F3453       F  0.54342523  0.99412344  0.64458368    -0.23800
F3454       F  0.54754446  0.01371057  0.67410287    -0.17800
F3455       F  0.48704881  0.05122401  0.60613646    -0.20200
F3456       F  0.47134752  0.03602241  0.57802381    -0.21400
F3457       F  0.50664188  0.04354543  0.57749745    -0.18600
F3458       F  0.51521240  0.93790911  0.61061365    -0.18700
F3459       F  0.49177879  0.94446118  0.63657468    -0.22500
F3460       F  0.52615036  0.95408568  0.64050675    -0.24100
C3461       C  0.51372041  0.11940826  0.49218031    -0.10900
C3462       C  0.49931399  0.12845950  0.50653633     0.11700
C3463       C  0.48560610  0.11523011  0.51844170    -0.02700
C3464       C  0.48771294  0.09306400  0.51645442    -0.05500
C3465       C  0.50258377  0.08360363  0.50250270    -0.16200
C3466       C  0.51563837  0.09718890  0.48972704     0.02700
C3467       C  0.49839995  0.15199697  0.50793815     0.12600
C3468       C  0.46855535  0.12448781  0.53289354     0.63300
H3469       H  0.47737240  0.08294955  0.52580481     0.12700
C3470       C  0.53140850  0.08879466  0.47340867     0.55400
H3471       H  0.52350120  0.13011186  0.48283767     0.08500
C3472       C  0.51315981  0.16388482  0.52029031    -0.05400
C3473       C  0.51198451  0.18624875  0.51985516    -0.06100
C3474       C  0.49654194  0.19674703  0.50764737    -0.15700
C3475       C  0.48155267  0.18487584  0.49566565    -0.01300
C3476       C  0.48295973  0.16256010  0.49576179    -0.08800
C3477       C  0.53002525  0.15299978  0.53380675     0.65500
H3478       H  0.52319000  0.19578360  0.52894206     0.10900
C3479       C  0.46421060  0.19583313  0.48289197     0.63900
H3480       H  0.47203486  0.15310467  0.48626479     0.08300
F3481       F  0.54665830  0.07642786  0.48335701    -0.19200
F3482       F  0.54193906  0.10506678  0.46285846    -0.15400
F3483       F  0.52073554  0.07688548  0.45822931    -0.18900
F3484       F  0.45404665  0.13585458  0.52087755    -0.22300
F3485       F  0.47769812  0.13791651  0.54778868    -0.23800
F3486       F  0.45748936  0.10878446  0.54373138    -0.17800
F3487       F  0.47329613  0.20891864  0.46769544    -0.20200
F3488       F  0.45170259  0.20795651  0.49632770    -0.21400
F3489       F  0.45110165  0.18133826  0.47258431    -0.18600
F3490       F  0.54257679  0.16757686  0.54467990    -0.18700
F3491       F  0.54321610  0.14090827  0.52104620    -0.22500
F3492       F  0.52040801  0.13989230  0.54863585    -0.24100
C3493       C  0.33945276  0.00743121  0.49094054    -0.10900
C3494       C  0.35071697  0.99844824  0.50799622     0.11700
C3495       C  0.33946331  0.98939921  0.52532746    -0.02700
C3496       C  0.31704219  0.98882019  0.52446894    -0.05500
C3497       C  0.30583694  0.99723229  0.50706612    -0.16200
C3498       C  0.31707595  0.00690758  0.49011433     0.02700
C3499       C  0.37435619  0.99892940  0.50714608     0.12600
C3500       C  0.35107743  0.98074234  0.54470842     0.63300
H3501       H  0.30801906  0.98186157  0.53741855     0.12700
C3502       C  0.30541992  0.01676507  0.47136954     0.55400
H3503       H  0.34843878  0.01465598  0.47811253     0.08500
C3504       C  0.38603759  0.98379862  0.49533990    -0.05400
C3505       C  0.40837651  0.98545043  0.49489632    -0.06100
C3506       C  0.41946047  0.00188752  0.50553948    -0.15700
C3507       C  0.40745711  0.01741094  0.51706291    -0.01300
C3508       C  0.38506996  0.01550774  0.51756153    -0.08800
C3509       C  0.37489967  0.96606629  0.48309483     0.65500
H3510       H  0.41735647  0.97372316  0.48608070     0.10900
C3511       C  0.41773565  0.03613487  0.52863283     0.63900
H3512       H  0.37556433  0.02704471  0.52610472     0.08300
F3513       F  0.31931509  0.02647906  0.45727925    -0.19200
F3514       F  0.29128897  0.03199162  0.47859918    -0.15400
F3515       F  0.29430533  0.00120464  0.46038231    -0.18900
F3516       F  0.36176840  0.99711972  0.55490244    -0.22300
F3517       F  0.36561050  0.96541357  0.53863433    -0.23800
F3518       F  0.33716986  0.97157819  0.55915911    -0.17800
F3519       F  0.43010985  0.04778811  0.51460979    -0.20200
F3520       F  0.43017231  0.02882810  0.54529097    -0.21400
F3521       F  0.40273641  0.04983341  0.53715026    -0.18600
F3522       F  0.38926995  0.95249860  0.47339096    -0.18700
F3523       F  0.36210561  0.97468591  0.46739414    -0.22500
F3524       F  0.36242822  0.95411250  0.49673499    -0.24100
C3525       C  0.51551692  0.98984265  0.33930812    -0.10900
C3526       C  0.49873545  0.99919274  0.35062328     0.11700
C3527       C  0.48194913  0.00936659  0.33950616    -0.02700
C3528       C  0.48261465  0.00984421  0.31713581    -0.05500
C3529       C  0.49952539  0.00070466  0.30585440    -0.16200
C3530       C  0.51610622  0.99021981  0.31693940     0.02700
C3531       C  0.49982950  0.99911610  0.37418872     0.12600
C3532       C  0.46356999  0.01981386  0.35122607     0.63300
H3533       H  0.47007450  0.01762957  0.30820919     0.12700
C3534       C  0.53408675  0.97921050  0.30515693     0.55400
H3535       H  0.52825994  0.98238072  0.34821951     0.08500
C3536       C  0.49326471  0.98143521  0.38643905    -0.05400
C3537       C  0.49429865  0.98293110  0.40877391    -0.06100
C3538       C  0.50219505  0.00125094  0.41913533    -0.15700
C3539       C  0.50936974  0.01875585  0.40659360    -0.01300
C3540       C  0.50806519  0.01722405  0.38428247    -0.08800
C3541       C  0.48566304  0.96096133  0.37592904     0.65500
H3542       H  0.48925466  0.96951268  0.41834929     0.10900
C3543       C  0.51779609  0.03926128  0.41638464     0.63900
H3544       H  0.51340367  0.03028340  0.37435673     0.08300
F3545       F  0.54755620  0.96850374  0.31893572    -0.19200
F3546       F  0.54606954  0.99403563  0.29414553    -0.15400
F3547       F  0.52573846  0.96455230  0.29093014    -0.18900
F3548       F  0.47109861  0.03638960  0.36364961    -0.22300
F3549       F  0.45351887  0.00510611  0.36415193    -0.23800
F3550       F  0.44853876  0.02795724  0.33729359    -0.17800
F3551       F  0.52144888  0.05481476  0.40119080    -0.20200
F3552       F  0.53691265  0.03545111  0.42667487    -0.21400
F3553       F  0.50307361  0.04719462  0.43067088    -0.18600
F3554       F  0.47869069  0.94620542  0.39074551    -0.18700
F3555       F  0.50221612  0.95196248  0.36459633    -0.22500
F3556       F  0.46898139  0.96509500  0.36215280    -0.24100
C3557       C  0.49682412  0.66153963  0.00832855    -0.10900
C3558       C  0.49240095  0.65179200  0.98870469     0.11700
C3559       C  0.48741488  0.66464096  0.97084469    -0.02700
C3560       C  0.48730575  0.68695995  0.97329133    -0.05500
C3561       C  0.49213887  0.69678303  0.99285126    -0.16200
C3562       C  0.49741325  0.68384908  0.01067015     0.02700
C3563       C  0.49344197  0.62806671  0.98749947     0.12600
C3564       C  0.48228475  0.65486053  0.94929957     0.63300
H3565       H  0.48338045  0.69703294  0.95985119     0.12700
C3566       C  0.50477460  0.69328465  0.03177391     0.55400
H3567       H  0.50023020  0.65137574  0.02184279     0.08500
C3568       C  0.51310157  0.61700941  0.98771493    -0.05400
C3569       C  0.51286563  0.59457920  0.98806887    -0.06100
C3570       C  0.49375691  0.58286585  0.98754806    -0.15700
C3571       C  0.47406617  0.59398167  0.98649777    -0.01300
C3572       C  0.47432180  0.61644747  0.98702407    -0.08800
C3573       C  0.53426652  0.62883532  0.98738262     0.65500
H3574       H  0.52776239  0.58592229  0.98863714     0.10900
C3575       C  0.45283231  0.58234555  0.98529224     0.63900
H3576       H  0.45949660  0.62523128  0.98711705     0.08300
F3577       F  0.52055411  0.70829484  0.02827802    -0.19200
F3578       F  0.51307707  0.67786475  0.04515504    -0.15400
F3579       F  0.48790896  0.70269556  0.04221379    -0.18900
F3580       F  0.46346342  0.64345993  0.95051130    -0.22300
F3581       F  0.49850776  0.64137056  0.94311474    -0.23800
F3582       F  0.47991616  0.67022420  0.93367663    -0.17800
F3583       F  0.43576095  0.59621041  0.98646653    -0.20200
F3584       F  0.45112814  0.56807451  0.00197305    -0.21400
F3585       F  0.45128720  0.57152311  0.96615740    -0.18600
F3586       F  0.55134080  0.61504309  0.98561028    -0.18700
F3587       F  0.53685816  0.64036510  0.00595864    -0.22500
F3588       F  0.53486158  0.64258249  0.97020410    -0.24100
C3589       C  0.66182938  0.48881784  0.98738927    -0.10900
C3590       C  0.65047773  0.50566708  0.99658659     0.11700
C3591       C  0.66152695  0.52172793  0.00802697    -0.02700
C3592       C  0.68392619  0.52092841  0.00889142    -0.05500
C3593       C  0.69530023  0.50429556  0.99931982    -0.16200
C3594       C  0.68418842  0.48780011  0.98862022     0.02700
C3595       C  0.62689795  0.50546677  0.99480162     0.12600
C3596       C  0.64967913  0.53948295  0.01936381     0.63300
H3597       H  0.69281027  0.53327446  0.01710516     0.12700
C3598       C  0.69594690  0.46928248  0.97855947     0.55400
H3599       H  0.65294541  0.47640986  0.97927175     0.08500
C3600       C  0.61613391  0.51281877  0.97635621    -0.05400
C3601       C  0.59371882  0.51211755  0.97596553    -0.06100
C3602       C  0.58207630  0.50425890  0.99328968    -0.15700
C3603       C  0.59282805  0.49636026  0.01144132    -0.01300
C3604       C  0.61520126  0.49705748  0.01184732    -0.08800
C3605       C  0.62825942  0.52112610  0.95715867     0.65500
H3606       H  0.58504665  0.51767779  0.96209858     0.10900
C3607       C  0.58066482  0.48660520  0.02992212     0.63900
H3608       H  0.62383759  0.49099156  0.02551400     0.08300
F3609       F  0.71059727  0.47678505  0.96393237    -0.19200
F3610       F  0.68220611  0.45549465  0.96809628    -0.15400
F3611       F  0.70648326  0.45790709  0.99417901    -0.18900
F3612       F  0.63675535  0.53098727  0.03502215    -0.22300
F3613       F  0.63721885  0.55057085  0.00500960    -0.23800
F3614       F  0.66351085  0.55378043  0.02897794    -0.17800
F3615       F  0.56841995  0.46974056  0.02264871    -0.20200
F3616       F  0.56750927  0.50167639  0.03904400    -0.21400
F3617       F  0.59421310  0.47905217  0.04559467    -0.18600
F3618       F  0.61465309  0.52830038  0.94134196    -0.18700
F3619       F  0.64061207  0.50505182  0.94866476    -0.22500
F3620       F  0.64130937  0.53787522  0.96311509    -0.24100
C3621       C  0.51880729  0.51234080  0.87468366    -0.10900
C3622       C  0.50138512  0.50508456  0.86269346     0.11700
C3623       C  0.48358785  0.49594873  0.87316024    -0.02700
C3624       C  0.48356703  0.49511954  0.89560792    -0.05500
C3625       C  0.50112333  0.50219110  0.90760568    -0.16200
C3626       C  0.51905479  0.51099236  0.89705085     0.02700
C3627       C  0.50290670  0.50612510  0.83909729     0.12600
C3628       C  0.46508769  0.48651782  0.86062091     0.63300
H3629       H  0.47006029  0.48839174  0.90398800     0.12700
C3630       C  0.53821562  0.51927721  0.90937276     0.55400
H3631       H  0.53238678  0.51887002  0.86626097     0.08500
C3632       C  0.49696479  0.52447232  0.82741488    -0.05400
C3633       C  0.49828650  0.52388338  0.80500856    -0.06100
C3634       C  0.50613509  0.50593640  0.79427249    -0.15700
C3635       C  0.51362710  0.48828468  0.80610040    -0.01300
C3636       C  0.51157443  0.48857213  0.82840472    -0.08800
C3637       C  0.48976035  0.54465472  0.83861408     0.65500
H3638       H  0.49318686  0.53742681  0.79564515     0.10900
C3639       C  0.52442716  0.46961303  0.79522600     0.63900
H3640       H  0.51679433  0.47507588  0.83777055     0.08300
F3641       F  0.55273655  0.52938464  0.89621180    -0.19200
F3642       F  0.54851216  0.50253498  0.91924575    -0.15400
F3643       F  0.53167611  0.53377908  0.92459880    -0.18900
F3644       F  0.47224694  0.46973062  0.84833662    -0.22300
F3645       F  0.45626214  0.50171495  0.84741169    -0.23800
F3646       F  0.44917141  0.47895373  0.87387016    -0.17800
F3647       F  0.54130185  0.47695324  0.78311030    -0.20200
F3648       F  0.51013719  0.45904906  0.78217599    -0.21400
F3649       F  0.53232258  0.45511273  0.80981366    -0.18600
F3650       F  0.48466465  0.56058753  0.82427326    -0.18700
F3651       F  0.50594003  0.55212163  0.85162264    -0.22500
F3652       F  0.47198112  0.54060089  0.85091196    -0.24100
C3653       C  0.52277544  0.50623485  0.15319743    -0.10900
C3654       C  0.50463082  0.49868421  0.14246569     0.11700
C3655       C  0.48692821  0.49126784  0.15433251    -0.02700
C3656       C  0.48763231  0.49264764  0.17670847    -0.05500
C3657       C  0.50559640  0.50061052  0.18744583    -0.16200
C3658       C  0.52359580  0.50739007  0.17560036     0.02700
C3659       C  0.50450226  0.49915123  0.11874564     0.12600
C3660       C  0.46749239  0.48175488  0.14341235     0.63300
H3661       H  0.47419284  0.48731552  0.18609867     0.12700
C3662       C  0.54339358  0.51618609  0.18648300     0.55400
H3663       H  0.53626749  0.51140043  0.14378063     0.08500
C3664       C  0.49991262  0.51800914  0.10729050    -0.05400
C3665       C  0.49973673  0.51730508  0.08486950    -0.06100
C3666       C  0.50374345  0.49839040  0.07364721    -0.15700
C3667       C  0.50877735  0.47957252  0.08516340    -0.01300
C3668       C  0.50923284  0.48039933  0.10760659    -0.08800
C3669       C  0.49510907  0.53875458  0.11875268     0.65500
H3670       H  0.49611613  0.53154231  0.07586287     0.10900
C3671       C  0.51414728  0.45882687  0.07393090     0.63900
H3672       H  0.51305740  0.46629270  0.11673952     0.08300
F3673       F  0.55779397  0.52438678  0.17193689    -0.19200
F3674       F  0.55348532  0.50019817  0.19770329    -0.15400
F3675       F  0.53785137  0.53236269  0.20034978    -0.18900
F3676       F  0.47322332  0.46340545  0.13271669    -0.22300
F3677       F  0.45907811  0.49611267  0.12902706    -0.23800
F3678       F  0.45168554  0.47651103  0.15785596    -0.17800
F3679       F  0.52997033  0.46229639  0.05900684    -0.20200
F3680       F  0.49620683  0.45079678  0.06390878    -0.21400
F3681       F  0.52138813  0.44352145  0.08803850    -0.18600
F3682       F  0.49001319  0.55490702  0.10466614    -0.18700
F3683       F  0.51271468  0.54518167  0.13037607    -0.22500
F3684       F  0.47806355  0.53599160  0.13239717    -0.24100
C3685       C  0.38558748  0.49647718  0.01684860    -0.10900
C3686       C  0.37352356  0.49564765  0.99806380     0.11700
C3687       C  0.38389433  0.49518435  0.97807440    -0.02700
C3688       C  0.40626192  0.49507883  0.97763242    -0.05500
C3689       C  0.41841378  0.49540887  0.99641642    -0.16200
C3690       C  0.40798874  0.49613910  0.01646448     0.02700
C3691       C  0.34998059  0.49527304  0.99984284     0.12600
C3692       C  0.37141798  0.49507801  0.95731240     0.63300
H3693       H  0.41451522  0.49478827  0.96248793     0.12700
C3694       C  0.42029501  0.49705745  0.03733476     0.55400
H3695       H  0.37719304  0.49719446  0.03190102     0.08500
C3696       C  0.33873094  0.47647946  0.00523937    -0.05400
C3697       C  0.31638837  0.47723097  0.00622249    -0.06100
C3698       C  0.30511247  0.49599025  0.00180678    -0.15700
C3699       C  0.31640571  0.51476429  0.99619548    -0.01300
C3700       C  0.33879877  0.51411826  0.99576569    -0.08800
C3701       C  0.35025303  0.45569428  0.00966672     0.65500
H3702       H  0.30743074  0.46306992  0.01040583     0.10900
C3703       C  0.30506800  0.53519110  0.98999268     0.63900
H3704       H  0.34784304  0.52834528  0.99201249     0.08300
F3705       F  0.40700152  0.50048287  0.05456712    -0.19200
F3706       F  0.43498772  0.51351645  0.03677745    -0.15400
F3707       F  0.43076065  0.47799708  0.04064419    -0.18900
F3708       F  0.36083922  0.51420094  0.95496404    -0.22300
F3709       F  0.35673586  0.47862211  0.95728480    -0.23800
F3710       F  0.38458737  0.49243496  0.93984877    -0.17800
F3711       F  0.31889809  0.54966570  0.98070828    -0.20200
F3712       F  0.29640991  0.54467294  0.00782743    -0.21400
F3713       F  0.28904577  0.53086748  0.97544499    -0.18600
F3714       F  0.33615692  0.43906724  0.01316865    -0.18700
F3715       F  0.36290749  0.45780596  0.02758501    -0.22500
F3716       F  0.36290376  0.45034680  0.99248106    -0.24100
C3717       C  0.52156770  0.38294441  0.99221315    -0.10900
C3718       C  0.50227312  0.37223284  0.98843690     0.11700
C3719       C  0.48338266  0.38412263  0.98517324    -0.02700
C3720       C  0.48469760  0.40649772  0.98504122    -0.05500
C3721       C  0.50409902  0.41720585  0.98824362    -0.16200
C3722       C  0.52286636  0.40533095  0.99214307     0.02700
C3723       C  0.50233867  0.34853554  0.98880404     0.12600
C3724       C  0.46189676  0.37330082  0.98216969     0.63300
H3725       H  0.47045503  0.41591470  0.98261556     0.12700
C3726       C  0.54392499  0.41622062  0.99712692     0.55400
H3727       H  0.53565390  0.37351282  0.99536678     0.08500
C3728       C  0.51038720  0.33627457  0.97164583    -0.05400
C3729       C  0.51054440  0.31391433  0.97349340    -0.06100
C3730       C  0.50276572  0.30365856  0.99174352    -0.15700
C3731       C  0.49412921  0.31589334  0.00858562    -0.01300
C3732       C  0.49459884  0.33823036  0.00703173    -0.08800
C3733       C  0.51855287  0.34675877  0.95143663     0.65500
H3734       H  0.51680118  0.30419078  0.96070188     0.10900
C3735       C  0.48380898  0.30537218  0.02775525     0.63900
H3736       H  0.48881265  0.34791167  0.02007011     0.08300
F3737       F  0.55068748  0.42779908  0.97968118    -0.19200
F3738       F  0.55970663  0.40169671  0.00215864    -0.15400
F3739       F  0.54144567  0.42974699  0.01434005    -0.18900
F3740       F  0.45613311  0.36292229  0.00068993    -0.22300
F3741       F  0.46295218  0.35869912  0.96572204    -0.23800
F3742       F  0.44601681  0.38778647  0.97733981    -0.17800
F3743       F  0.49887531  0.29428474  0.03931875    -0.20200
F3744       F  0.46806674  0.29144062  0.02100245    -0.21400
F3745       F  0.47450902  0.32014848  0.04118319    -0.18600
F3746       F  0.52442006  0.33187847  0.93627620    -0.18700
F3747       F  0.53620176  0.35917856  0.95596534    -0.22500
F3748       F  0.50281244  0.35943861  0.94273448    -0.24100
loop_ 
_geom_bond_atom_site_label_1 
_geom_bond_atom_site_label_2 
_geom_bond_distance 
_geom_bond_site_symmetry_2 
_ccdc_geom_bond_type 
Zn1           O5   1.965   1_554  S
Zn1           O6   2.038       .  S
Zn1          O10   2.015       .  S
Zn1          O17   2.040       .  S
Zn2           O5   1.964       .  S
Zn2           O7   2.031       .  S
Zn2           O9   2.027       .  S
Zn2          O13   2.015       .  S
Zn3           O5   1.963       .  S
Zn3           O8   2.012       .  S
Zn3          O11   2.026       .  S
Zn3          O14   2.035       .  S
Zn4           O5   1.957   1_554  S
Zn4          O12   2.011       .  S
Zn4          O15   2.005       .  S
Zn4          O16   2.016       .  S
O6           C18   1.277   1_554  A
O7           C19   1.274       .  A
O8           C20   1.273       .  A
O9           C18   1.273       .  A
O10          C20   1.273   1_554  A
O11          C19   1.274       .  A
O12          C21   1.272   1_554  A
O13          C22   1.275       .  A
O14          C21   1.274       .  A
O15          C22   1.271   1_554  A
O16          C23   1.271       .  A
O17          C23   1.276       .  A
C18        C3570   1.492       .  S
C19        C3625   1.481       .  S
C20        C3602   1.470       .  S
C21        C3721   1.480       .  S
C22        C3689   1.479       .  S
C23        C3666   1.487       .  S
Zn24         O28   1.950       .  S
Zn24         O29   2.007       .  S
Zn24         O33   2.006       .  S
Zn24         O40   2.010       .  S
Zn25         O28   1.966   1_565  S
Zn25         O30   2.022       .  S
Zn25         O32   2.032       .  S
Zn25         O36   2.027       .  S
Zn26         O28   1.965       .  S
Zn26         O31   2.032       .  S
Zn26         O34   2.018       .  S
Zn26         O37   2.030       .  S
Zn27         O28   1.957   1_565  S
Zn27         O35   2.028       .  S
Zn27         O38   2.025       .  S
Zn27         O39   2.037       .  S
O29          C41   1.269       .  A
O30          C42   1.275   1_565  A
O31          C43   1.273       .  A
O32          C41   1.276   1_565  A
O33          C43   1.274       .  A
O34          C42   1.272       .  A
O35          C44   1.273   1_565  A
O36          C45   1.276       .  A
O37          C44   1.276       .  A
O38          C45   1.273       .  A
O39          C46   1.276       .  A
O40          C46   1.270   1_545  A
C41        C3506   1.500       .  S
C42        C3538   1.492       .  S
C43        C3465   1.501       .  S
C44        C3401   1.502       .  S
C45        C3378   1.505       .  S
C46        C3442   1.497       .  S
Zn47         O51   1.961   1_455  S
Zn47         O52   2.006       .  S
Zn47         O56   2.017       .  S
Zn47         O63   2.007       .  S
Zn48         O51   1.965   1_455  S
Zn48         O53   2.026       .  S
Zn48         O55   2.037       .  S
Zn48         O59   2.030       .  S
Zn49         O51   1.962       .  S
Zn49         O54   2.023       .  S
Zn49         O57   2.008       .  S
Zn49         O60   2.010       .  S
Zn50         O51   1.965       .  S
Zn50         O58   2.037       .  S
Zn50         O61   2.040       .  S
Zn50         O62   2.014       .  S
O52          C64   1.272       .  A
O53          C65   1.275   1_455  A
O54          C66   1.273       .  A
O55          C64   1.274       .  A
O56          C66   1.272   1_455  A
O57          C65   1.272       .  A
O58          C67   1.275       .  A
O59          C68   1.274   1_455  A
O60          C67   1.272       .  A
O61          C68   1.275       .  A
O62          C69   1.273   1_655  A
O63          C69   1.273       .  A
C64        C3282   1.485       .  S
C65        C3177   1.471       .  S
C66        C3337   1.477       .  S
C67        C3218   1.476       .  S
C68        C3250   1.488       .  S
C69        C3305   1.480       .  S
Zn70         O74   1.962   1_446  S
Zn70         O75   2.022       .  S
Zn70         O79   2.014       .  S
Zn70         O86   2.045       .  S
Zn71         O74   1.970   1_545  S
Zn71         O76   2.029       .  S
Zn71         O78   2.025       .  S
Zn71         O82   2.042       .  S
Zn72         O74   1.978   1_556  S
Zn72         O77   2.040       .  S
Zn72         O80   2.052       .  S
Zn72         O83   2.050       .  S
Zn73         O74   1.951   1_455  S
Zn73         O81   2.002       .  S
Zn73         O84   2.009       .  S
Zn73         O85   2.022       .  S
O75          C87   1.272   1_456  A
O76          C88   1.274       .  A
O77          C89   1.277   1_655  A
O78          C87   1.276       .  A
O79          C89   1.271   1_545  A
O80          C88   1.279   1_566  A
O81          C90   1.269   1_455  A
O82          C91   1.277   1_545  A
O83          C90   1.279   1_556  A
O84          C91   1.271   1_455  A
O85          C92   1.271       .  A
O86          C92   1.277   1_546  A
C87        C3081   1.503       .  S
C88        C2985   1.499       .  S
C89        C3049   1.503       .  S
C90        C3017   1.505       .  S
C91        C3154   1.497       .  S
C92        C3113   1.504       .  S
C93        C2953   1.485       .  S
C93          C94   1.405       .  A
C93          C98   1.406       .  A
C94          C95   1.406   1_554  A
C94          H99   1.083   1_554  S
C95        C2921   1.484       .  S
C95          C96   1.403       .  A
C96          C97   1.402       .  A
C96         H100   1.084       .  S
C97        C3593   1.480       .  S
C97          C98   1.403   1_556  A
C98         H101   1.084       .  S
C102       C2866   1.479       .  S
C102        C103   1.402       .  A
C102        C107   1.404       .  A
C103        C104   1.401       .  A
C103        H108   1.081       .  S
C104       C3698   1.482       .  S
C104        C105   1.403   1_554  A
C105        C106   1.402       .  A
C105        H109   1.084       .  S
C106       C2889   1.482       .  S
C106        C107   1.403   1_556  A
C107        H110   1.084       .  S
C111       C2825   1.478       .  S
C111        C112   1.400       .  A
C111        C116   1.403       .  A
C112        C113   1.401   1_655  A
C112        H117   1.084       .  S
C113       C2793   1.474       .  S
C113        C114   1.402       .  A
C114        C115   1.403   1_455  A
C114        H118   1.084       .  S
C115       C3346   1.479       .  S
C115        C116   1.402       .  A
C116        H119   1.084       .  S
C120       C2770   1.485       .  S
C120        C121   1.404   1_456  A
C120        C125   1.405       .  A
C121        C122   1.404       .  A
C121        H126   1.084       .  S
C122       C2729   1.483       .  S
C122        C123   1.406       .  A
C123        C124   1.405       .  A
C123        H127   1.083       .  S
C124       C3090   1.484       .  S
C124        C125   1.404   1_654  A
C125        H128   1.084       .  S
C129       C2697   1.489       .  S
C129        C130   1.407       .  A
C129        C134   1.406   1_455  A
C130        C131   1.405   1_455  A
C130        H135   1.082       .  S
C131       C3241   1.488       .  S
C131        C132   1.405       .  A
C132        C133   1.405       .  A
C132        H136   1.084       .  S
C133       C2665   1.486       .  S
C133        C134   1.404       .  A
C134        H137   1.084       .  S
Zn138       O142   1.940       .  S
Zn138       O143   1.988       .  S
Zn138       O147   1.997       .  S
Zn138       O154   1.976       .  S
Zn139       O142   1.971       .  S
Zn139       O144   2.021       .  S
Zn139       O146   2.045       .  S
Zn139       O150   2.024       .  S
Zn140       O142   1.966       .  S
Zn140       O145   2.033       .  S
Zn140       O148   2.025       .  S
Zn140       O151   2.026       .  S
Zn141       O142   1.976       .  S
Zn141       O149   2.036       .  S
Zn141       O152   2.034       .  S
Zn141       O153   2.041       .  S
O143        C155   1.270       .  A
O144        C156   1.274       .  A
O145        C157   1.273       .  A
O146        C155   1.274       .  A
O147        C157   1.269       .  A
O148        C156   1.275       .  A
O149        C158   1.277       .  A
O150        C159   1.274       .  A
O151        C158   1.274       .  A
O152        C159   1.276       .  A
O153        C160   1.274       .  A
O154        C160   1.268       .  A
C155       C2610   1.488       .  S
C156       C2898   1.479       .  S
C157       C2633   1.478       .  S
C158       C2706   1.486       .  S
C159       C2761   1.481       .  S
C160       C2569   1.472       .  S
C161       C2537   1.486       .  S
C161        C162   1.405       .  A
C161        C166   1.405   1_655  A
C162        C163   1.402   1_655  A
C162        H167   1.084       .  S
C163       C3026   1.482       .  S
C163        C164   1.404   1_556  A
C164        C165   1.406       .  A
C164        H168   1.084       .  S
C165       C2505   1.486       .  S
C165        C166   1.404   1_554  A
C166        H169   1.082       .  S
Zn170       O174   1.966       .  S
Zn170       O175   2.011       .  S
Zn170       O179   2.042       .  S
Zn170       O186   2.027       .  S
Zn171       O174   1.972       .  S
Zn171       O176   2.053       .  S
Zn171       O178   2.033       .  S
Zn171       O182   2.034       .  S
Zn172       O174   1.937       .  S
Zn172       O177   2.000       .  S
Zn172       O180   1.988       .  S
Zn172       O183   1.970       .  S
Zn173       O174   1.975       .  S
Zn173       O181   2.030       .  S
Zn173       O184   2.029       .  S
Zn173       O185   2.022       .  S
O175        C187   1.274       .  A
O176        C188   1.275       .  A
O177        C189   1.270       .  A
O178        C187   1.276       .  A
O179        C189   1.273       .  A
O180        C188   1.270       .  A
O181        C190   1.273       .  A
O182        C191   1.276       .  A
O183        C190   1.267       .  A
O184        C191   1.275       .  A
O185        C192   1.274       .  A
O186        C192   1.274       .  A
C187       C2930   1.477       .  S
C188       C2473   1.487       .  S
C189       C2450   1.489       .  S
C190       C2409   1.472       .  S
C191       C2674   1.484       .  S
C192       C2546   1.481       .  S
Zn193       O197   1.977       .  S
Zn193       O198   2.062       .  S
Zn193       O202   2.032       .  S
Zn193       O209   2.062       .  S
Zn194       O197   1.948       .  S
Zn194       O199   2.015       .  S
Zn194       O201   1.994       .  S
Zn194       O205   2.003       .  S
Zn195       O197   1.964       .  S
Zn195       O200   2.016       .  S
Zn195       O203   2.038       .  S
Zn195       O206   2.014       .  S
Zn196       O197   1.958       .  S
Zn196       O204   2.013       .  S
Zn196       O207   2.020       .  S
Zn196       O208   2.013       .  S
O198        C210   1.280       .  A
O199        C211   1.271       .  A
O200        C212   1.276       .  A
O201        C210   1.269       .  A
O202        C212   1.275       .  A
O203        C211   1.275       .  A
O204        C213   1.274       .  A
O205        C214   1.272       .  A
O206        C213   1.271       .  A
O207        C214   1.272       .  A
O208        C215   1.272       .  A
O209        C215   1.278       .  A
C210       C2738   1.505       .  S
C211       C2313   1.490       .  S
C212       C2834   1.489       .  S
C213       C2386   1.494       .  S
C214       C2345   1.488       .  S
C215       C2962   1.497       .  S
Zn216       O220   1.968       .  S
Zn216       O221   2.012       .  S
Zn216       O225   2.023       .  S
Zn216       O232   2.042       .  S
Zn217       O220   1.970       .  S
Zn217       O222   2.049       .  S
Zn217       O224   2.028       .  S
Zn217       O228   2.048       .  S
Zn218       O220   1.959       .  S
Zn218       O223   2.009       .  S
Zn218       O226   2.008       .  S
Zn218       O229   2.025       .  S
Zn219       O220   1.940       .  S
Zn219       O227   1.990       .  S
Zn219       O230   1.985       .  S
Zn219       O231   1.995       .  S
O221        C233   1.274       .  A
O222        C234   1.278       .  A
O223        C235   1.272       .  A
O224        C233   1.275       .  A
O225        C235   1.274       .  A
O226        C234   1.271       .  A
O227        C236   1.271       .  A
O228        C237   1.275       .  A
O229        C236   1.272       .  A
O230        C237   1.270       .  A
O231        C238   1.270       .  A
O232        C238   1.273       .  A
C233       C2857   1.480       .  S
C234       C2514   1.488       .  S
C235       C2802   1.468       .  S
C236       C2226   1.484       .  S
C237       C2258   1.478       .  S
C238       C2281   1.473       .  S
C239       C2162   1.475       .  S
C239        C240   1.403       .  A
C239        C244   1.399   1_554  A
C240        C241   1.404   1_554  A
C240        H245   1.084       .  S
C241       C3730   1.482       .  S
C241        C242   1.404       .  A
C242        C243   1.405       .  A
C242        H246   1.083       .  S
C243       C2194   1.478       .  S
C243        C244   1.400       .  A
C244        H247   1.084       .  S
C248       C2121   1.480       .  S
C248        C249   1.401   1_554  A
C248        C253   1.404       .  A
C249        C250   1.402       .  A
C249        H254   1.084       .  S
C250       C2089   1.484       .  S
C250        C251   1.407       .  A
C251        C252   1.408       .  A
C251        H255   1.084       .  S
C252       C3561   1.493       .  S
C252        C253   1.405   1_556  A
C253        H256   1.082       .  S
C257       C2066   1.482       .  S
C257        C258   1.405   1_565  A
C257        C262   1.404       .  A
C258        C259   1.403       .  A
C258        H263   1.083       .  S
C259       C2025   1.477       .  S
C259        C260   1.401       .  A
C260        C261   1.400       .  A
C260        H264   1.084       .  S
C261       C3529   1.475       .  S
C261        C262   1.400   1_545  A
C262        H265   1.084       .  S
C266       C2002   1.496       .  S
C266        C267   1.411       .  A
C266        C271   1.409   1_556  A
C267        C268   1.408   1_546  A
C267        H272   1.084       .  S
C268       C3122   1.489       .  S
C268        C269   1.402       .  A
C269        C270   1.403       .  A
C269        H273   1.084       .  S
C270       C1961   1.487       .  S
C270        C271   1.406   1_565  A
C271        H274   1.083       .  S
C275       C1938   1.489       .  S
C275        C276   1.408       .  A
C275        C280   1.404   1_566  A
C276        C277   1.407   1_565  A
C276        H281   1.082       .  S
C277       C2994   1.493       .  S
C277        C278   1.406   1_556  A
C278        C279   1.403       .  A
C278        H282   1.083       .  S
C279       C1897   1.485       .  S
C279        C280   1.404       .  A
C280        H283   1.083   1_545  S
Zn284       O288   1.976       .  S
Zn284       O289   2.038       .  S
Zn284       O293   2.049       .  S
Zn284       O300   2.061       .  S
Zn285       O288   1.962       .  S
Zn285       O290   2.018       .  S
Zn285       O292   2.006       .  S
Zn285       O296   2.027       .  S
Zn286       O288   1.962       .  S
Zn286       O291   2.013       .  S
Zn286       O294   2.021       .  S
Zn286       O297   2.020       .  S
Zn287       O288   1.952       .  S
Zn287       O295   2.018       .  S
Zn287       O298   2.016       .  S
Zn287       O299   2.008       .  S
O289        C301   1.276       .  A
O290        C302   1.272       .  A
O291        C303   1.272       .  A
O292        C301   1.275       .  A
O293        C303   1.278       .  A
O294        C302   1.272       .  A
O295        C304   1.275       .  A
O296        C305   1.274       .  A
O297        C304   1.272       .  A
O298        C305   1.271       .  A
O299        C306   1.271       .  A
O300        C306   1.279       .  A
C301       C2098   1.489       .  S
C302       C1833   1.477       .  S
C303       C1865   1.497       .  S
C304       C1801   1.498       .  S
C305       C2441   1.490       .  S
C306       C1929   1.505       .  S
C307       C1778   1.490       .  S
C307        C308   1.406   1_545  A
C307        C312   1.407       .  A
C308        C309   1.403       .  A
C308        H313   1.084       .  S
C309       C1874   1.481       .  S
C309        C310   1.403       .  A
C310        C311   1.403       .  A
C310        H314   1.084       .  S
C311       C3433   1.485       .  S
C311        C312   1.405   1_565  A
C312        H315   1.082       .  S
Zn316       O320   1.972       .  S
Zn316       O321   2.067       .  S
Zn316       O325   2.039       .  S
Zn316       O332   2.019       .  S
Zn317       O320   1.949       .  S
Zn317       O322   1.991       .  S
Zn317       O324   2.013       .  S
Zn317       O328   2.003       .  S
Zn318       O320   1.971       .  S
Zn318       O323   2.014       .  S
Zn318       O326   2.026       .  S
Zn318       O329   2.039       .  S
Zn319       O320   1.977       .  S
Zn319       O327   2.036       .  S
Zn319       O330   2.047       .  S
Zn319       O331   2.038       .  S
O321        C333   1.276       .  A
O322        C334   1.270       .  A
O323        C335   1.272       .  A
O324        C333   1.273       .  A
O325        C335   1.277       .  A
O326        C334   1.274       .  A
O327        C336   1.275       .  A
O328        C337   1.272       .  A
O329        C336   1.275       .  A
O330        C337   1.275       .  A
O331        C338   1.278       .  A
O332        C338   1.275       .  A
C333       C1737   1.505       .  S
C334       C1705   1.476       .  S
C335       C1769   1.491       .  S
C336       C1993   1.489       .  S
C337       C2601   1.482       .  S
C338       C2185   1.485       .  S
Zn339       O343   1.974       .  S
Zn339       O344   2.023       .  S
Zn339       O348   2.033       .  S
Zn339       O355   2.067       .  S
Zn340       O343   1.966       .  S
Zn340       O345   2.034       .  S
Zn340       O347   2.006       .  S
Zn340       O351   2.031       .  S
Zn341       O343   1.969       .  S
Zn341       O346   2.026       .  S
Zn341       O349   2.041       .  S
Zn341       O352   2.036       .  S
Zn342       O343   1.938       .  S
Zn342       O350   1.982       .  S
Zn342       O353   1.986       .  S
Zn342       O354   1.991       .  S
O344        C356   1.275       .  A
O345        C357   1.275       .  A
O346        C358   1.275       .  A
O347        C356   1.273       .  A
O348        C358   1.276       .  A
O349        C357   1.276       .  A
O350        C359   1.270       .  A
O351        C360   1.273       .  A
O352        C359   1.274       .  A
O353        C360   1.270       .  A
O354        C361   1.268       .  A
O355        C361   1.277       .  A
C356       C2057   1.473       .  S
C357       C1970   1.485       .  S
C358       C2130   1.476       .  S
C359       C2249   1.479       .  S
C360       C1641   1.484       .  S
C361       C1673   1.492       .  S
Zn362       O366   1.937       .  S
Zn362       O367   1.991       .  S
Zn362       O371   1.990       .  S
Zn362       O378   1.968       .  S
Zn363       O366   1.963       .  S
Zn363       O368   2.026       .  S
Zn363       O370   2.044       .  S
Zn363       O374   2.040       .  S
Zn364       O366   1.970       .  S
Zn364       O369   2.046       .  S
Zn364       O372   2.022       .  S
Zn364       O375   2.025       .  S
Zn365       O366   1.961       .  S
Zn365       O373   2.017       .  S
Zn365       O376   2.023       .  S
Zn365       O377   2.035       .  S
O367        C379   1.271       .  A
O368        C380   1.276       .  A
O369        C381   1.274       .  A
O370        C379   1.275       .  A
O371        C381   1.269       .  A
O372        C380   1.276       .  A
O373        C382   1.274       .  A
O374        C383   1.276       .  A
O375        C382   1.275       .  A
O376        C383   1.274       .  A
O377        C384   1.273       .  A
O378        C384   1.268       .  A
C379       C1577   1.488       .  S
C380       C2034   1.481       .  S
C381       C1609   1.476       .  S
C382       C2153   1.473       .  S
C383       C1906   1.486       .  S
C384       C2354   1.480       .  S
C385       C1545   1.484       .  S
C385        C386   1.406       .  A
C385        C390   1.404       .  A
C386        C387   1.407       .  A
C386        H391   1.075       .  S
C387       C1513   1.485       .  S
C387        C388   1.405       .  A
C388        C389   1.406       .  A
C388        H392   1.082       .  S
C389       C3657   1.485       .  S
C389        C390   1.403       .  A
C390        H393   1.077       .  S
C394       C1481   1.486       .  S
C394        C395   1.407       .  A
C394        C399   1.405       .  A
C395        C396   1.408       .  A
C395        H400   1.084       .  S
C396       C3209   1.485       .  S
C396        C397   1.401       .  A
C397        C398   1.402       .  A
C397        H401   1.084       .  S
C398       C1449   1.478       .  S
C398        C399   1.403       .  A
C399        H402   1.084       .  S
Zn403       O407   1.970       .  S
Zn403       O408   2.021       .  S
Zn403       O412   2.025       .  S
Zn403       O419   2.033       .  S
Zn404       O407   1.972       .  S
Zn404       O409   2.032       .  S
Zn404       O411   2.029       .  S
Zn404       O415   2.041       .  S
Zn405       O407   1.969       .  S
Zn405       O410   2.042       .  S
Zn405       O413   2.034       .  S
Zn405       O416   2.041       .  S
Zn406       O407   1.943       .  S
Zn406       O414   1.992       .  S
Zn406       O417   1.992       .  S
Zn406       O418   1.995       .  S
O408        C420   1.274       .  A
O409        C421   1.276       .  A
O410        C422   1.277       .  A
O411        C420   1.276       .  A
O412        C422   1.274       .  A
O413        C421   1.276       .  A
O414        C423   1.271       .  A
O415        C424   1.273       .  A
O416        C423   1.273       .  A
O417        C424   1.271       .  A
O418        C425   1.272       .  A
O419        C425   1.272       .  A
C420       C1554   1.481       .  S
C421       C1490   1.483       .  S
C422       C1426   1.479       .  S
C423       C1394   1.493       .  S
C424       C2377   1.488       .  S
C425       C1618   1.487       .  S
C426       C1353   1.476       .  S
C426        C427   1.401       .  A
C426        C431   1.404       .  A
C427        C428   1.400       .  A
C427        H432   1.084       .  S
C428       C3474   1.475       .  S
C428        C429   1.401       .  A
C429        C430   1.403       .  A
C429        H433   1.084       .  S
C430       C1417   1.482       .  S
C430        C431   1.405       .  A
C431        H434   1.084       .  S
C435       C1321   1.477       .  S
C435        C436   1.403       .  A
C435        C440   1.402       .  A
C436        C437   1.402       .  A
C436        H441   1.084       .  S
C437       C3369   1.480       .  S
C437        C438   1.403       .  A
C438        C439   1.404       .  A
C438        H442   1.084       .  S
C439       C1289   1.479       .  S
C439        C440   1.401       .  A
C440        H443   1.084       .  S
Zn444       O448   1.975       .  S
Zn444       O449   2.035       .  S
Zn444       O453   2.007       .  S
Zn444       O460   2.025       .  S
Zn445       O448   1.943       .  S
Zn445       O450   2.008       .  S
Zn445       O452   1.990       .  S
Zn445       O456   1.990       .  S
Zn446       O448   1.970       .  S
Zn446       O451   2.015       .  S
Zn446       O454   2.050       .  S
Zn446       O457   2.034       .  S
Zn447       O448   1.970       .  S
Zn447       O455   2.034       .  S
Zn447       O458   2.035       .  S
Zn447       O459   2.040       .  S
O449        C461   1.273       .  A
O450        C462   1.270       .  A
O451        C463   1.275       .  A
O452        C461   1.271       .  A
O453        C463   1.272       .  A
O454        C462   1.274       .  A
O455        C464   1.276       .  A
O456        C465   1.269       .  A
O457        C464   1.276       .  A
O458        C465   1.275       .  A
O459        C466   1.275       .  A
O460        C466   1.274       .  A
C461       C1225   1.481       .  S
C462       C1682   1.484       .  S
C463       C1330   1.472       .  S
C464       C1522   1.479       .  S
C465       C2290   1.486       .  S
C466       C1257   1.479       .  S
C467       C1193   1.481       .  S
C467        C468   1.402       .  A
C467        C472   1.405       .  A
C468        C469   1.401       .  A
C468        H473   1.084       .  S
C469       C3273   1.481       .  S
C469        C470   1.403       .  A
C470        C471   1.404       .  A
C470        H474   1.084       .  S
C471       C1266   1.483       .  S
C471        C472   1.406       .  A
C472        H475   1.084       .  S
C476       C1129   1.480       .  S
C476        C477   1.406       .  A
C476        C481   1.404       .  A
C477        C478   1.404       .  A
C477        H482   1.084       .  S
C478       C3634   1.482       .  S
C478        C479   1.402       .  A
C479        C480   1.401       .  A
C479        H483   1.084       .  S
C480       C1161   1.479       .  S
C480        C481   1.403       .  A
C481        H484   1.084       .  S
Zn485       O489   1.979       .  S
Zn485       O490   2.058       .  S
Zn485       O494   2.043       .  S
Zn485       O501   2.044       .  S
Zn486       O489   1.937       .  S
Zn486       O491   1.990       .  S
Zn486       O493   1.973       .  S
Zn486       O497   1.994       .  S
Zn487       O489   1.972       .  S
Zn487       O492   2.026       .  S
Zn487       O495   2.034       .  S
Zn487       O498   2.017       .  S
Zn488       O489   1.967       .  S
Zn488       O496   2.014       .  S
Zn488       O499   2.045       .  S
Zn488       O500   2.018       .  S
O490        C502   1.277       .  A
O491        C503   1.268       .  A
O492        C504   1.275       .  A
O493        C502   1.268       .  A
O494        C504   1.276       .  A
O495        C503   1.273       .  A
O496        C505   1.273       .  A
O497        C506   1.269       .  A
O498        C505   1.274       .  A
O499        C506   1.274       .  A
O500        C507   1.274       .  A
O501        C507   1.277       .  A
C502       C2642   1.480       .  S
C503       C1106   1.484       .  S
C504       C1202   1.480       .  S
C505       C1362   1.469       .  S
C506       C1746   1.475       .  S
C507       C1170   1.476       .  S
Zn508       O512   1.962       .  S
Zn508       O513   2.030       .  S
Zn508       O517   2.023       .  S
Zn508       O524   2.033       .  S
Zn509       O512   1.960       .  S
Zn509       O514   2.023       .  S
Zn509       O516   2.004       .  S
Zn509       O520   2.026       .  S
Zn510       O512   1.964       .  S
Zn510       O515   2.028       .  S
Zn510       O518   2.027       .  S
Zn510       O521   2.023       .  S
Zn511       O512   1.956       .  S
Zn511       O519   2.008       .  S
Zn511       O522   2.015       .  S
Zn511       O523   2.010       .  S
O513        C525   1.276       .  A
O514        C526   1.274       .  A
O515        C527   1.276       .  A
O516        C525   1.271       .  A
O517        C527   1.273       .  A
O518        C526   1.274       .  A
O519        C528   1.271       .  A
O520        C529   1.274       .  A
O521        C528   1.274       .  A
O522        C529   1.271       .  A
O523        C530   1.274       .  A
O524        C530   1.273       .  A
C525       C1458   1.490       .  S
C526       C1065   1.487       .  S
C527       C1298   1.496       .  S
C528       C1842   1.485       .  S
C529       C2482   1.488       .  S
C530       C1138   1.504       .  S
C531       C1042   1.479       .  S
C531        C532   1.401       .  A
C531        C536   1.404       .  A
C532        C533   1.400       .  A
C532        H537   1.084       .  S
C533       C3497   1.478       .  S
C533        C534   1.401   1_565  A
C534        C535   1.406       .  A
C534        H538   1.084       .  S
C535       C1001   1.487       .  S
C535        C536   1.405   1_545  A
C536        H539   1.082       .  S
C540        C937   1.487       .  S
C540        C541   1.406   1_565  A
C540        C545   1.408       .  A
C541        C542   1.405       .  A
C541        H546   1.084       .  S
C542        C969   1.484       .  S
C542        C543   1.403       .  A
C543        C544   1.403       .  A
C543        H547   1.083       .  S
C544       C3410   1.490       .  S
C544        C545   1.409   1_545  A
C545        H548   1.084       .  S
C549        C905   1.480       .  S
C549        C550   1.402       .  A
C549        C554   1.403   1_655  A
C550        C551   1.403   1_655  A
C550        H555   1.083       .  S
C551       C3314   1.480       .  S
C551        C552   1.403       .  A
C552        C553   1.401       .  A
C552        H556   1.084       .  S
C553        C873   1.476       .  S
C553        C554   1.402       .  A
C554        H557   1.084       .  S
C558        C841   1.484       .  S
C558        C559   1.406   1_455  A
C558        C563   1.405       .  A
C559        C560   1.406   1_565  A
C559        H564   1.084   1_565  S
C560        C809   1.486       .  S
C560        C561   1.404       .  A
C561        C562   1.404   1_645  A
C561        H565   1.084       .  S
C562       C3145   1.485       .  S
C562        C563   1.404       .  A
C563        H566   1.084       .  S
C567        C777   1.479       .  S
C567        C568   1.403       .  A
C567        C572   1.403   1_655  A
C568        C569   1.401   1_655  A
C568        H573   1.084       .  S
C569       C3186   1.477       .  S
C569        C570   1.402       .  A
C570        C571   1.403       .  A
C570        H574   1.083       .  S
C571        C745   1.480       .  S
C571        C572   1.402       .  A
C572        H575   1.084       .  S
Zn576       O580   1.963       .  S
Zn576       O581   2.027       .  S
Zn576       O585   2.015       .  S
Zn576       O592   2.021       .  S
Zn577       O580   1.955       .  S
Zn577       O582   2.023       .  S
Zn577       O584   2.013       .  S
Zn577       O588   2.012       .  S
Zn578       O580   1.956       .  S
Zn578       O583   2.009       .  S
Zn578       O586   2.014       .  S
Zn578       O589   1.999       .  S
Zn579       O580   1.966       .  S
Zn579       O587   2.033       .  S
Zn579       O590   2.050       .  S
Zn579       O591   2.042       .  S
O581        C593   1.275       .  A
O582        C594   1.273       .  A
O583        C595   1.273       .  A
O584        C593   1.271       .  A
O585        C595   1.270       .  A
O586        C594   1.271       .  A
O587        C596   1.274       .  A
O588        C597   1.272       .  A
O589        C596   1.273       .  A
O590        C597   1.278       .  A
O591        C598   1.275       .  A
O592        C598   1.276       .  A
C593       C2217   1.490       .  S
C594       C1234   1.488       .  S
C595       C1650   1.491       .  S
C596       C1033   1.498       .  S
C597        C754   1.494       .  S
C598        C850   1.507       .  S
Zn599       O603   1.976       .  S
Zn599       O604   2.059       .  S
Zn599       O608   2.041       .  S
Zn599       O615   2.055       .  S
Zn600       O603   1.963       .  S
Zn600       O605   2.037       .  S
Zn600       O607   2.024       .  S
Zn600       O611   2.034       .  S
Zn601       O603   1.966       .  S
Zn601       O606   2.006       .  S
Zn601       O609   2.034       .  S
Zn601       O612   2.024       .  S
Zn602       O603   1.962       .  S
Zn602       O610   2.020       .  S
Zn602       O613   2.013       .  S
Zn602       O614   2.029       .  S
O604        C616   1.280       .  A
O605        C617   1.274       .  A
O606        C618   1.275       .  A
O607        C616   1.273       .  A
O608        C618   1.276       .  A
O609        C617   1.275       .  A
O610        C619   1.273       .  A
O611        C620   1.277       .  A
O612        C619   1.272       .  A
O613        C620   1.271       .  A
O614        C621   1.276       .  A
O615        C621   1.276       .  A
C616        C978   1.511       .  S
C617       C1385   1.494       .  S
C618        C914   1.490       .  S
C619       C2322   1.484       .  S
C620       C1586   1.495       .  S
C621        C818   1.512       .  S
C622        C681   1.482       .  S
C622        C623   1.402       .  A
C622        C627   1.406       .  A
C623        C624   1.402   1_445  A
C623        H628   1.084       .  S
C624        C713   1.482       .  S
C624        C625   1.404       .  A
C625        C626   1.403   1_655  A
C625        H629   1.084       .  S
C626       C3058   1.484       .  S
C626        C627   1.406   1_565  A
C627        H630   1.084       .  S
Zn631       O635   1.969       .  S
Zn631       O636   2.047       .  S
Zn631       O640   2.032       .  S
Zn631       O647   2.044       .  S
Zn632       O635   1.939       .  S
Zn632       O637   1.995       .  S
Zn632       O639   1.995       .  S
Zn632       O643   1.983       .  S
Zn633       O635   1.973       .  S
Zn633       O638   2.034       .  S
Zn633       O641   2.046       .  S
Zn633       O644   2.025       .  S
Zn634       O635   1.967       .  S
Zn634       O642   1.997       .  S
Zn634       O645   2.029       .  S
Zn634       O646   2.017       .  S
O636        C648   1.275       .  A
O637        C649   1.269       .  A
O638        C650   1.276       .  A
O639        C648   1.272       .  A
O640        C650   1.276       .  A
O641        C649   1.274       .  A
O642        C651   1.271       .  A
O643        C652   1.271       .  A
O644        C651   1.275       .  A
O645        C652   1.271       .  A
O646        C653   1.273       .  A
O647        C653   1.277       .  A
C648       C1810   1.497       .  S
C649       C1074   1.479       .  S
C650        C946   1.479       .  S
C651        C786   1.471       .  S
C652       C2418   1.489       .  S
C653        C722   1.487       .  S
Zn654       O658   1.934       .  S
Zn654       O659   1.997       .  S
Zn654       O663   1.980       .  S
Zn654       O670   1.977       .  S
Zn655       O658   1.964       .  S
Zn655       O660   2.025       .  S
Zn655       O662   2.029       .  S
Zn655       O666   2.033       .  S
Zn656       O658   1.966       .  S
Zn656       O661   2.041       .  S
Zn656       O664   2.005       .  S
Zn656       O667   2.015       .  S
Zn657       O658   1.963       .  S
Zn657       O665   2.020       .  S
Zn657       O668   2.024       .  S
Zn657       O669   2.027       .  S
O659        C671   1.272       .  A
O660        C672   1.275       .  A
O661        C673   1.273       .  A
O662        C671   1.272       .  A
O663        C673   1.267       .  A
O664        C672   1.272       .  A
O665        C674   1.273       .  A
O666        C675   1.275       .  A
O667        C674   1.274       .  A
O668        C675   1.274       .  A
O669        C676   1.273       .  A
O670        C676   1.268       .  A
C671       C2578   1.491       .  S
C672        C882   1.471       .  S
C673       C1097   1.476       .  S
C674       C1010   1.483       .  S
C675        C690   1.476       .  S
C676       C1714   1.472       .  S
C677        C678   1.403       .  A
C677        C682   1.409       .  A
C677        H687   1.083       .  S
C678        C683   1.488       .  S
C678        C679   1.417       .  A
C679        C680   1.408       .  A
C679        C684   1.519       .  S
C680        C681   1.403       .  A
C680        H685   1.083       .  S
C681        C682   1.415       .  A
C682        C686   1.517       .  S
C683        C688   1.418       .  A
C683        C692   1.404       .  A
C684        F700   1.382       .  S
C684        F701   1.382       .  S
C684        F702   1.385       .  S
C686        F697   1.383   1_545  S
C686        F698   1.382       .  S
C686        F699   1.384       .  S
C688        C689   1.409       .  A
C688        C693   1.520       .  S
C689        C690   1.402       .  A
C689        H694   1.084       .  S
C690        C691   1.413       .  A
C691        C692   1.409       .  A
C691        C695   1.516       .  S
C692        H696   1.084       .  S
C693        F706   1.384       .  S
C693        F707   1.382       .  S
C693        F708   1.382       .  S
C695        F703   1.383       .  S
C695        F704   1.383       .  S
C695        F705   1.384       .  S
C709        C710   1.403       .  A
C709        C714   1.409       .  A
C709        H719   1.083       .  S
C710        C715   1.489       .  S
C710        C711   1.419       .  A
C711        C712   1.406       .  A
C711        C716   1.520       .  S
C712        C713   1.402       .  A
C712        H717   1.083       .  S
C713        C714   1.417       .  A
C714        C718   1.519   1_565  S
C715        C720   1.418       .  A
C715        C724   1.400       .  A
C716        F732   1.382       .  S
C716        F733   1.383       .  S
C716        F734   1.385       .  S
C718        F729   1.383       .  S
C718        F730   1.385       .  S
C718        F731   1.381       .  S
C720        C721   1.409       .  A
C720        C725   1.519       .  S
C721        C722   1.404       .  A
C721        H726   1.083       .  S
C722        C723   1.421       .  A
C723        C724   1.408       .  A
C723        C727   1.517       .  S
C724        H728   1.083       .  S
C725        F738   1.384       .  S
C725        F739   1.382       .  S
C725        F740   1.383       .  S
C727        F735   1.383       .  S
C727        F736   1.382       .  S
C727        F737   1.385       .  S
C741        C742   1.404       .  A
C741        C746   1.407       .  A
C741        H751   1.083       .  S
C742        C747   1.486       .  S
C742        C743   1.417       .  A
C743        C744   1.407       .  A
C743        C748   1.519       .  S
C744        C745   1.403       .  A
C744        H749   1.083       .  S
C745        C746   1.415       .  A
C746        C750   1.519       .  S
C747        C752   1.415       .  A
C747        C756   1.399       .  A
C748        F764   1.382       .  S
C748        F765   1.381       .  S
C748        F766   1.385       .  S
C750        F761   1.384       .  S
C750        F762   1.382       .  S
C750        F763   1.383       .  S
C752        C753   1.411       .  A
C752        C757   1.520       .  S
C753        C754   1.408       .  A
C753        H758   1.082       .  S
C754        C755   1.425       .  A
C755        C756   1.407       .  A
C755        C759   1.519       .  S
C756        H760   1.083       .  S
C757        F770   1.384       .  S
C757        F771   1.382       .  S
C757        F772   1.382       .  S
C759        F767   1.385       .  S
C759        F768   1.383       .  S
C759        F769   1.382       .  S
C773        C774   1.401       .  A
C773        C778   1.406       .  A
C773        H783   1.083       .  S
C774        C779   1.477       .  S
C774        C775   1.413       .  A
C775        C776   1.404       .  A
C775        C780   1.520       .  S
C776        C777   1.404       .  A
C776        H781   1.083       .  S
C777        C778   1.418       .  A
C778        C782   1.519   1_655  S
C779        C784   1.415       .  A
C779        C788   1.401       .  A
C780        F796   1.383       .  S
C780        F797   1.382       .  S
C780        F798   1.384       .  S
C782        F793   1.385       .  S
C782        F794   1.383       .  S
C782        F795   1.381   1_455  S
C784        C785   1.404       .  A
C784        C789   1.520       .  S
C785        C786   1.402       .  A
C785        H790   1.084       .  S
C786        C787   1.415       .  A
C787        C788   1.406       .  A
C787        C791   1.515       .  S
C788        H792   1.083       .  S
C789        F802   1.384       .  S
C789        F803   1.383       .  S
C789        F804   1.382       .  S
C791        F799   1.381       .  S
C791        F800   1.383       .  S
C791        F801   1.384       .  S
C805        C806   1.404       .  A
C805        C810   1.410       .  A
C805        H815   1.083       .  S
C806        C811   1.494       .  S
C806        C807   1.419       .  A
C807        C808   1.411       .  A
C807        C812   1.519       .  S
C808        C809   1.403       .  A
C808        H813   1.083       .  S
C809        C810   1.416       .  A
C810        C814   1.518       .  S
C811        C816   1.413       .  A
C811        C820   1.401       .  A
C812        F828   1.382       .  S
C812        F829   1.382       .  S
C812        F830   1.385       .  S
C814        F825   1.382       .  S
C814        F826   1.384       .  S
C814        F827   1.383   1_545  S
C816        C817   1.410       .  A
C816        C821   1.521       .  S
C817        C818   1.414       .  A
C817        H822   1.081       .  S
C818        C819   1.431       .  A
C819        C820   1.414       .  A
C819        C823   1.521       .  S
C820        H824   1.082       .  S
C821        F834   1.385       .  S
C821        F835   1.382       .  S
C821        F836   1.382       .  S
C823        F831   1.385       .  S
C823        F832   1.383       .  S
C823        F833   1.383       .  S
C837        C838   1.402       .  A
C837        C842   1.409       .  A
C837        H847   1.083       .  S
C838        C843   1.489       .  S
C838        C839   1.417       .  A
C839        C840   1.410       .  A
C839        C844   1.519       .  S
C840        C841   1.403       .  A
C840        H845   1.083       .  S
C841        C842   1.416       .  A
C842        C846   1.517   1_565  S
C843        C848   1.412       .  A
C843        C852   1.400       .  A
C844        F860   1.383       .  S
C844        F861   1.382       .  S
C844        F862   1.384       .  S
C846        F857   1.384       .  S
C846        F858   1.383       .  S
C846        F859   1.381       .  S
C848        C849   1.407       .  A
C848        C853   1.521       .  S
C849        C850   1.413       .  A
C849        H854   1.082       .  S
C850        C851   1.430       .  A
C851        C852   1.413       .  A
C851        C855   1.521       .  S
C852        H856   1.083       .  S
C853        F866   1.385       .  S
C853        F867   1.383       .  S
C853        F868   1.381       .  S
C855        F863   1.384       .  S
C855        F864   1.383       .  S
C855        F865   1.385       .  S
C869        C870   1.402       .  A
C869        C874   1.406       .  A
C869        H879   1.083       .  S
C870        C875   1.483       .  S
C870        C871   1.418       .  A
C871        C872   1.406       .  A
C871        C876   1.519       .  S
C872        C873   1.401       .  A
C872        H877   1.083       .  S
C873        C874   1.415       .  A
C874        C878   1.518       .  S
C875        C880   1.417       .  A
C875        C884   1.403       .  A
C876        F892   1.382       .  S
C876        F893   1.383       .  S
C876        F894   1.385       .  S
C878        F889   1.383       .  S
C878        F890   1.385   1_455  S
C878        F891   1.382   1_455  S
C880        C881   1.405       .  A
C880        C885   1.520       .  S
C881        C882   1.401       .  A
C881        H886   1.084       .  S
C882        C883   1.414       .  A
C883        C884   1.407       .  A
C883        C887   1.518       .  S
C884        H888   1.083       .  S
C885        F898   1.385       .  S
C885        F899   1.382       .  S
C885        F900   1.383       .  S
C887        F895   1.384       .  S
C887        F896   1.383       .  S
C887        F897   1.383       .  S
C901        C902   1.403       .  A
C901        C906   1.408       .  A
C901        H911   1.083       .  S
C902        C907   1.485       .  S
C902        C903   1.417       .  A
C903        C904   1.406       .  A
C903        C908   1.520       .  S
C904        C905   1.402       .  A
C904        H909   1.084       .  S
C905        C906   1.416       .  A
C906        C910   1.519   1_655  S
C907        C912   1.413       .  A
C907        C916   1.402       .  A
C908        F924   1.382       .  S
C908        F925   1.383       .  S
C908        F926   1.384       .  S
C910        F921   1.384       .  S
C910        F922   1.382       .  S
C910        F923   1.384       .  S
C912        C913   1.405       .  A
C912        C917   1.520       .  S
C913        C914   1.408       .  A
C913        H918   1.083       .  S
C914        C915   1.422       .  A
C915        C916   1.410       .  A
C915        C919   1.519       .  S
C916        H920   1.083       .  S
C917        F930   1.385       .  S
C917        F931   1.382       .  S
C917        F932   1.382       .  S
C919        F927   1.383       .  S
C919        F928   1.383       .  S
C919        F929   1.385       .  S
C933        C934   1.404       .  A
C933        C938   1.411       .  A
C933        H943   1.083       .  S
C934        C939   1.493       .  S
C934        C935   1.418       .  A
C935        C936   1.411       .  A
C935        C940   1.519       .  S
C936        C937   1.403       .  A
C936        H941   1.083       .  S
C937        C938   1.416       .  A
C938        C942   1.517   1_565  S
C939        C944   1.420       .  A
C939        C948   1.403       .  A
C940        F956   1.382       .  S
C940        F957   1.382       .  S
C940        F958   1.384       .  S
C942        F953   1.383       .  S
C942        F954   1.385       .  S
C942        F955   1.383       .  S
C944        C945   1.413       .  A
C944        C949   1.519       .  S
C945        C946   1.403       .  A
C945        H950   1.084       .  S
C946        C947   1.415       .  A
C947        C948   1.407       .  A
C947        C951   1.519       .  S
C948        H952   1.084       .  S
C949        F962   1.384       .  S
C949        F963   1.382       .  S
C949        F964   1.382       .  S
C951        F959   1.384       .  S
C951        F960   1.383       .  S
C951        F961   1.384       .  S
C965        C966   1.402       .  A
C965        C970   1.408       .  A
C965        H975   1.083       .  S
C966        C971   1.492       .  S
C966        C967   1.419       .  A
C967        C968   1.411       .  A
C967        C972   1.519       .  S
C968        C969   1.403       .  A
C968        H973   1.083       .  S
C969        C970   1.416       .  A
C970        C974   1.517       .  S
C971        C976   1.413       .  A
C971        C980   1.398       .  A
C972        F988   1.382       .  S
C972        F989   1.382       .  S
C972        F990   1.385       .  S
C974        F985   1.384   1_545  S
C974        F986   1.381   1_545  S
C974        F987   1.382   1_545  S
C976        C977   1.412       .  A
C976        C981   1.519       .  S
C977        C978   1.413       .  A
C977        H982   1.082       .  S
C978        C979   1.433       .  A
C979        C980   1.411       .  A
C979        C983   1.522       .  S
C980        H984   1.083       .  S
C981        F994   1.384       .  S
C981        F995   1.382       .  S
C981        F996   1.382       .  S
C983        F991   1.384       .  S
C983        F992   1.382       .  S
C983        F993   1.385       .  S
C997        C998   1.401       .  A
C997       C1002   1.408       .  A
C997       H1007   1.084       .  S
C998       C1003   1.484       .  S
C998        C999   1.415       .  A
C999       C1000   1.406       .  A
C999       C1004   1.520       .  S
C1000      C1001   1.405       .  A
C1000      H1005   1.083       .  S
C1001      C1002   1.422       .  A
C1002      C1006   1.520       .  S
C1003      C1008   1.414       .  A
C1003      C1012   1.402       .  A
C1004      F1020   1.382       .  S
C1004      F1021   1.383       .  S
C1004      F1022   1.384       .  S
C1006      F1017   1.383       .  S
C1006      F1018   1.385       .  S
C1006      F1019   1.381       .  S
C1008      C1009   1.406       .  A
C1008      C1013   1.520       .  S
C1009      C1010   1.406       .  A
C1009      H1014   1.083       .  S
C1010      C1011   1.420       .  A
C1011      C1012   1.408       .  A
C1011      C1015   1.519       .  S
C1012      H1016   1.083       .  S
C1013      F1026   1.385       .  S
C1013      F1027   1.382       .  S
C1013      F1028   1.382       .  S
C1015      F1023   1.385       .  S
C1015      F1024   1.384       .  S
C1015      F1025   1.382       .  S
C1029      C1030   1.399       .  A
C1029      C1034   1.409       .  A
C1029      H1039   1.083       .  S
C1030      C1035   1.482       .  S
C1030      C1031   1.411       .  A
C1031      C1032   1.405       .  A
C1031      C1036   1.522       .  S
C1032      C1033   1.413       .  A
C1032      H1037   1.082       .  S
C1033      C1034   1.427       .  A
C1034      C1038   1.521       .  S
C1035      C1040   1.416       .  A
C1035      C1044   1.402       .  A
C1036      F1052   1.382       .  S
C1036      F1053   1.382       .  S
C1036      F1054   1.385       .  S
C1038      F1049   1.383       .  S
C1038      F1050   1.385       .  S
C1038      F1051   1.384       .  S
C1040      C1041   1.406       .  A
C1040      C1045   1.520       .  S
C1041      C1042   1.403       .  A
C1041      H1046   1.083       .  S
C1042      C1043   1.416       .  A
C1043      C1044   1.407       .  A
C1043      C1047   1.518       .  S
C1044      H1048   1.083       .  S
C1045      F1058   1.385       .  S
C1045      F1059   1.382       .  S
C1045      F1060   1.382       .  S
C1047      F1055   1.385       .  S
C1047      F1056   1.383       .  S
C1047      F1057   1.381       .  S
C1061      C1062   1.403       .  A
C1061      C1066   1.406       .  A
C1061      H1071   1.083       .  S
C1062      C1067   1.488       .  S
C1062      C1063   1.418       .  A
C1063      C1064   1.409       .  A
C1063      C1068   1.518       .  S
C1064      C1065   1.407       .  A
C1064      H1069   1.085       .  S
C1065      C1066   1.420       .  A
C1066      C1070   1.521       .  S
C1067      C1072   1.417       .  A
C1067      C1076   1.402       .  A
C1068      F1084   1.383       .  S
C1068      F1085   1.382       .  S
C1068      F1086   1.384       .  S
C1070      F1081   1.383       .  S
C1070      F1082   1.385       .  S
C1070      F1083   1.384       .  S
C1072      C1073   1.410       .  A
C1072      C1077   1.517       .  S
C1073      C1074   1.403       .  A
C1073      H1078   1.083       .  S
C1074      C1075   1.418       .  A
C1075      C1076   1.406       .  A
C1075      C1079   1.519       .  S
C1076      H1080   1.084       .  S
C1077      F1090   1.384       .  S
C1077      F1091   1.381       .  S
C1077      F1092   1.383       .  S
C1079      F1087   1.382       .  S
C1079      F1088   1.384       .  S
C1079      F1089   1.385       .  S
C1093      C1094   1.400       .  A
C1093      C1098   1.402       .  A
C1093      H1103   1.083       .  S
C1094      C1099   1.484       .  S
C1094      C1095   1.417       .  A
C1095      C1096   1.410       .  A
C1095      C1100   1.519       .  S
C1096      C1097   1.404       .  A
C1096      H1101   1.083       .  S
C1097      C1098   1.417       .  A
C1098      C1102   1.520       .  S
C1099      C1104   1.415       .  A
C1099      C1108   1.400       .  A
C1100      F1116   1.382       .  S
C1100      F1117   1.382       .  S
C1100      F1118   1.385       .  S
C1102      F1113   1.385       .  S
C1102      F1114   1.382       .  S
C1102      F1115   1.384       .  S
C1104      C1105   1.409       .  A
C1104      C1109   1.518       .  S
C1105      C1106   1.406       .  A
C1105      H1110   1.082       .  S
C1106      C1107   1.422       .  A
C1107      C1108   1.404       .  A
C1107      C1111   1.521       .  S
C1108      H1112   1.083       .  S
C1109      F1122   1.384       .  S
C1109      F1123   1.382       .  S
C1109      F1124   1.382       .  S
C1111      F1119   1.383       .  S
C1111      F1120   1.384       .  S
C1111      F1121   1.385       .  S
C1125      C1126   1.403       .  A
C1125      C1130   1.408       .  A
C1125      H1135   1.083       .  S
C1126      C1131   1.485       .  S
C1126      C1127   1.417       .  A
C1127      C1128   1.407       .  A
C1127      C1132   1.519       .  S
C1128      C1129   1.402       .  A
C1128      H1133   1.083       .  S
C1129      C1130   1.415       .  A
C1130      C1134   1.516       .  S
C1131      C1136   1.412       .  A
C1131      C1140   1.399       .  A
C1132      F1148   1.382       .  S
C1132      F1149   1.382       .  S
C1132      F1150   1.385       .  S
C1134      F1145   1.382       .  S
C1134      F1146   1.385       .  S
C1134      F1147   1.383       .  S
C1136      C1137   1.406       .  A
C1136      C1141   1.521       .  S
C1137      C1138   1.413       .  A
C1137      H1142   1.082       .  S
C1138      C1139   1.429       .  A
C1139      C1140   1.411       .  A
C1139      C1143   1.521       .  S
C1140      H1144   1.083       .  S
C1141      F1154   1.384       .  S
C1141      F1155   1.383       .  S
C1141      F1156   1.382       .  S
C1143      F1151   1.384       .  S
C1143      F1152   1.383       .  S
C1143      F1153   1.385       .  S
C1157      C1158   1.402       .  A
C1157      C1162   1.406       .  A
C1157      H1167   1.083       .  S
C1158      C1163   1.486       .  S
C1158      C1159   1.418       .  A
C1159      C1160   1.408       .  A
C1159      C1164   1.519       .  S
C1160      C1161   1.402       .  A
C1160      H1165   1.084       .  S
C1161      C1162   1.415       .  A
C1162      C1166   1.517       .  S
C1163      C1168   1.417       .  A
C1163      C1172   1.403       .  A
C1164      F1180   1.382       .  S
C1164      F1181   1.382       .  S
C1164      F1182   1.385       .  S
C1166      F1177   1.384       .  S
C1166      F1178   1.383       .  S
C1166      F1179   1.382       .  S
C1168      C1169   1.408       .  A
C1168      C1173   1.520       .  S
C1169      C1170   1.401       .  A
C1169      H1174   1.083       .  S
C1170      C1171   1.414       .  A
C1171      C1172   1.408       .  A
C1171      C1175   1.516       .  S
C1172      H1176   1.083       .  S
C1173      F1186   1.384       .  S
C1173      F1187   1.382       .  S
C1173      F1188   1.382       .  S
C1175      F1183   1.385       .  S
C1175      F1184   1.383       .  S
C1175      F1185   1.383       .  S
C1189      C1190   1.403       .  A
C1189      C1194   1.408       .  A
C1189      H1199   1.083       .  S
C1190      C1195   1.490       .  S
C1190      C1191   1.419       .  A
C1191      C1192   1.409       .  A
C1191      C1196   1.519       .  S
C1192      C1193   1.401       .  A
C1192      H1197   1.083       .  S
C1193      C1194   1.415       .  A
C1194      C1198   1.518       .  S
C1195      C1200   1.418       .  A
C1195      C1204   1.403       .  A
C1196      F1212   1.382       .  S
C1196      F1213   1.383       .  S
C1196      F1214   1.385       .  S
C1198      F1209   1.383       .  S
C1198      F1210   1.384       .  S
C1198      F1211   1.382       .  S
C1200      C1201   1.411       .  A
C1200      C1205   1.519       .  S
C1201      C1202   1.403       .  A
C1201      H1206   1.083       .  S
C1202      C1203   1.416       .  A
C1203      C1204   1.408       .  A
C1203      C1207   1.518       .  S
C1204      H1208   1.083       .  S
C1205      F1218   1.384       .  S
C1205      F1219   1.382       .  S
C1205      F1220   1.383       .  S
C1207      F1215   1.385       .  S
C1207      F1216   1.384       .  S
C1207      F1217   1.383       .  S
C1221      C1222   1.404       .  A
C1221      C1226   1.411       .  A
C1221      H1231   1.083       .  S
C1222      C1227   1.482       .  S
C1222      C1223   1.415       .  A
C1223      C1224   1.401       .  A
C1223      C1228   1.522       .  S
C1224      C1225   1.403       .  A
C1224      H1229   1.083       .  S
C1225      C1226   1.419       .  A
C1226      C1230   1.518       .  S
C1227      C1232   1.411       .  A
C1227      C1236   1.399       .  A
C1228      F1244   1.382       .  S
C1228      F1245   1.381       .  S
C1228      F1246   1.385       .  S
C1230      F1241   1.383       .  S
C1230      F1242   1.385       .  S
C1230      F1243   1.384       .  S
C1232      C1233   1.409       .  A
C1232      C1237   1.518       .  S
C1233      C1234   1.409       .  A
C1233      H1238   1.083       .  S
C1234      C1235   1.424       .  A
C1235      C1236   1.405       .  A
C1235      C1239   1.521       .  S
C1236      H1240   1.083       .  S
C1237      F1250   1.385       .  S
C1237      F1251   1.383       .  S
C1237      F1252   1.382       .  S
C1239      F1247   1.383       .  S
C1239      F1248   1.383       .  S
C1239      F1249   1.385       .  S
C1253      C1254   1.404       .  A
C1253      C1258   1.410       .  A
C1253      H1263   1.083       .  S
C1254      C1259   1.489       .  S
C1254      C1255   1.418       .  A
C1255      C1256   1.409       .  A
C1255      C1260   1.520       .  S
C1256      C1257   1.402       .  A
C1256      H1261   1.083       .  S
C1257      C1258   1.414       .  A
C1258      C1262   1.516       .  S
C1259      C1264   1.417       .  A
C1259      C1268   1.402       .  A
C1260      F1276   1.382       .  S
C1260      F1277   1.382       .  S
C1260      F1278   1.384       .  S
C1262      F1273   1.383       .  S
C1262      F1274   1.385       .  S
C1262      F1275   1.383       .  S
C1264      C1265   1.411       .  A
C1264      C1269   1.518       .  S
C1265      C1266   1.404       .  A
C1265      H1270   1.083       .  S
C1266      C1267   1.416       .  A
C1267      C1268   1.406       .  A
C1267      C1271   1.519       .  S
C1268      H1272   1.083       .  S
C1269      F1282   1.385       .  S
C1269      F1283   1.382       .  S
C1269      F1284   1.382       .  S
C1271      F1279   1.384       .  S
C1271      F1280   1.383       .  S
C1271      F1281   1.382       .  S
C1285      C1286   1.402       .  A
C1285      C1290   1.406       .  A
C1285      H1295   1.083       .  S
C1286      C1291   1.483       .  S
C1286      C1287   1.416       .  A
C1287      C1288   1.407       .  A
C1287      C1292   1.519       .  S
C1288      C1289   1.404       .  A
C1288      H1293   1.083       .  S
C1289      C1290   1.415       .  A
C1290      C1294   1.518       .  S
C1291      C1296   1.413       .  A
C1291      C1300   1.399       .  A
C1292      F1308   1.383       .  S
C1292      F1309   1.381       .  S
C1292      F1310   1.385       .  S
C1294      F1305   1.384       .  S
C1294      F1306   1.381       .  S
C1294      F1307   1.385       .  S
C1296      C1297   1.408       .  A
C1296      C1301   1.521       .  S
C1297      C1298   1.410       .  A
C1297      H1302   1.082       .  S
C1298      C1299   1.427       .  A
C1299      C1300   1.409       .  A
C1299      C1303   1.521       .  S
C1300      H1304   1.083       .  S
C1301      F1314   1.384       .  S
C1301      F1315   1.383       .  S
C1301      F1316   1.381       .  S
C1303      F1311   1.385       .  S
C1303      F1312   1.384       .  S
C1303      F1313   1.382       .  S
C1317      C1318   1.401       .  A
C1317      C1322   1.404       .  A
C1317      H1327   1.084       .  S
C1318      C1323   1.479       .  S
C1318      C1319   1.415       .  A
C1319      C1320   1.406       .  A
C1319      C1324   1.519       .  S
C1320      C1321   1.403       .  A
C1320      H1325   1.084       .  S
C1321      C1322   1.416       .  A
C1322      C1326   1.519       .  S
C1323      C1328   1.415       .  A
C1323      C1332   1.403       .  A
C1324      F1340   1.382       .  S
C1324      F1341   1.382       .  S
C1324      F1342   1.385       .  S
C1326      F1337   1.385       .  S
C1326      F1338   1.381       .  S
C1326      F1339   1.383       .  S
C1328      C1329   1.402       .  A
C1328      C1333   1.521       .  S
C1329      C1330   1.402       .  A
C1329      H1334   1.084       .  S
C1330      C1331   1.415       .  A
C1331      C1332   1.408       .  A
C1331      C1335   1.518       .  S
C1332      H1336   1.084       .  S
C1333      F1346   1.385       .  S
C1333      F1347   1.382       .  S
C1333      F1348   1.382       .  S
C1335      F1343   1.385       .  S
C1335      F1344   1.383       .  S
C1335      F1345   1.382       .  S
C1349      C1350   1.403       .  A
C1349      C1354   1.406       .  A
C1349      H1359   1.084       .  S
C1350      C1355   1.482       .  S
C1350      C1351   1.416       .  A
C1351      C1352   1.405       .  A
C1351      C1356   1.519       .  S
C1352      C1353   1.401       .  A
C1352      H1357   1.084       .  S
C1353      C1354   1.415       .  A
C1354      C1358   1.517       .  S
C1355      C1360   1.417       .  A
C1355      C1364   1.404       .  A
C1356      F1372   1.382       .  S
C1356      F1373   1.382       .  S
C1356      F1374   1.384       .  S
C1358      F1369   1.383       .  S
C1358      F1370   1.385       .  S
C1358      F1371   1.381       .  S
C1360      C1361   1.405       .  A
C1360      C1365   1.520       .  S
C1361      C1362   1.401       .  A
C1361      H1366   1.084       .  S
C1362      C1363   1.411       .  A
C1363      C1364   1.406       .  A
C1363      C1367   1.516       .  S
C1364      H1368   1.083       .  S
C1365      F1378   1.385       .  S
C1365      F1379   1.382       .  S
C1365      F1380   1.382       .  S
C1367      F1375   1.384       .  S
C1367      F1376   1.383       .  S
C1367      F1377   1.383       .  S
C1381      C1382   1.400       .  A
C1381      C1386   1.409       .  A
C1381      H1391   1.084       .  S
C1382      C1387   1.488       .  S
C1382      C1383   1.414       .  A
C1383      C1384   1.409       .  A
C1383      C1388   1.519       .  S
C1384      C1385   1.408       .  A
C1384      H1389   1.083       .  S
C1385      C1386   1.422       .  A
C1386      C1390   1.515       .  S
C1387      C1392   1.414       .  A
C1387      C1396   1.403       .  A
C1388      F1404   1.383       .  S
C1388      F1405   1.382       .  S
C1388      F1406   1.384       .  S
C1390      F1401   1.381       .  S
C1390      F1402   1.385       .  S
C1390      F1403   1.384       .  S
C1392      C1393   1.403       .  A
C1392      C1397   1.522       .  S
C1393      C1394   1.407       .  A
C1393      H1398   1.083       .  S
C1394      C1395   1.424       .  A
C1395      C1396   1.414       .  A
C1395      C1399   1.519       .  S
C1396      H1400   1.083       .  S
C1397      F1410   1.385       .  S
C1397      F1411   1.382       .  S
C1397      F1412   1.382       .  S
C1399      F1407   1.383       .  S
C1399      F1408   1.384       .  S
C1399      F1409   1.384       .  S
C1413      C1414   1.402       .  A
C1413      C1418   1.406       .  A
C1413      H1423   1.084       .  S
C1414      C1419   1.487       .  S
C1414      C1415   1.417       .  A
C1415      C1416   1.410       .  A
C1415      C1420   1.519       .  S
C1416      C1417   1.404       .  A
C1416      H1421   1.084       .  S
C1417      C1418   1.416       .  A
C1418      C1422   1.518       .  S
C1419      C1424   1.418       .  A
C1419      C1428   1.401       .  A
C1420      F1436   1.382       .  S
C1420      F1437   1.382       .  S
C1420      F1438   1.385       .  S
C1422      F1433   1.384       .  S
C1422      F1434   1.384       .  S
C1422      F1435   1.381       .  S
C1424      C1425   1.411       .  A
C1424      C1429   1.519       .  S
C1425      C1426   1.403       .  A
C1425      H1430   1.083       .  S
C1426      C1427   1.416       .  A
C1427      C1428   1.406       .  A
C1427      C1431   1.518       .  S
C1428      H1432   1.083       .  S
C1429      F1442   1.384       .  S
C1429      F1443   1.382       .  S
C1429      F1444   1.382       .  S
C1431      F1439   1.385       .  S
C1431      F1440   1.382       .  S
C1431      F1441   1.384       .  S
C1445      C1446   1.400       .  A
C1445      C1450   1.402       .  A
C1445      H1455   1.085       .  S
C1446      C1451   1.483       .  S
C1446      C1447   1.416       .  A
C1447      C1448   1.409       .  A
C1447      C1452   1.519       .  S
C1448      C1449   1.404       .  A
C1448      H1453   1.083       .  S
C1449      C1450   1.419       .  A
C1450      C1454   1.519       .  S
C1451      C1456   1.414       .  A
C1451      C1460   1.399       .  A
C1452      F1468   1.382       .  S
C1452      F1469   1.382       .  S
C1452      F1470   1.384       .  S
C1454      F1465   1.383       .  S
C1454      F1466   1.383       .  S
C1454      F1467   1.381       .  S
C1456      C1457   1.408       .  A
C1456      C1461   1.520       .  S
C1457      C1458   1.409       .  A
C1457      H1462   1.082       .  S
C1458      C1459   1.425       .  A
C1459      C1460   1.405       .  A
C1459      C1463   1.521       .  S
C1460      H1464   1.082       .  S
C1461      F1474   1.385       .  S
C1461      F1475   1.382       .  S
C1461      F1476   1.382       .  S
C1463      F1471   1.385       .  S
C1463      F1472   1.383       .  S
C1463      F1473   1.384       .  S
C1477      C1478   1.403       .  A
C1477      C1482   1.410       .  A
C1477      H1487   1.083       .  S
C1478      C1483   1.492       .  S
C1478      C1479   1.418       .  A
C1479      C1480   1.410       .  A
C1479      C1484   1.519       .  S
C1480      C1481   1.403       .  A
C1480      H1485   1.083       .  S
C1481      C1482   1.417       .  A
C1482      C1486   1.518       .  S
C1483      C1488   1.418       .  A
C1483      C1492   1.404       .  A
C1484      F1500   1.382       .  S
C1484      F1501   1.382       .  S
C1484      F1502   1.384       .  S
C1486      F1497   1.384       .  S
C1486      F1498   1.382       .  S
C1486      F1499   1.383       .  S
C1488      C1489   1.409       .  A
C1488      C1493   1.520       .  S
C1489      C1490   1.404       .  A
C1489      H1494   1.083       .  S
C1490      C1491   1.416       .  A
C1491      C1492   1.410       .  A
C1491      C1495   1.517       .  S
C1492      H1496   1.083       .  S
C1493      F1506   1.385       .  S
C1493      F1507   1.382       .  S
C1493      F1508   1.382       .  S
C1495      F1503   1.384       .  S
C1495      F1504   1.383       .  S
C1495      F1505   1.382       .  S
C1509      C1510   1.403       .  A
C1509      C1514   1.409       .  A
C1509      H1519   1.084       .  S
C1510      C1515   1.490       .  S
C1510      C1511   1.418       .  A
C1511      C1512   1.410       .  A
C1511      C1516   1.519       .  S
C1512      C1513   1.403       .  A
C1512      H1517   1.085       .  S
C1513      C1514   1.416       .  A
C1514      C1518   1.517       .  S
C1515      C1520   1.418       .  A
C1515      C1524   1.403       .  A
C1516      F1532   1.383       .  S
C1516      F1533   1.382       .  S
C1516      F1534   1.384       .  S
C1518      F1529   1.381       .  S
C1518      F1530   1.384       .  S
C1518      F1531   1.383       .  S
C1520      C1521   1.411       .  A
C1520      C1525   1.518       .  S
C1521      C1522   1.402       .  A
C1521      H1526   1.083       .  S
C1522      C1523   1.416       .  A
C1523      C1524   1.409       .  A
C1523      C1527   1.518       .  S
C1524      H1528   1.083       .  S
C1525      F1538   1.384       .  S
C1525      F1539   1.383       .  S
C1525      F1540   1.382       .  S
C1527      F1535   1.383       .  S
C1527      F1536   1.383       .  S
C1527      F1537   1.384       .  S
C1541      C1542   1.402       .  A
C1541      C1546   1.407       .  A
C1541      H1551   1.082       .  S
C1542      C1547   1.488       .  S
C1542      C1543   1.417       .  A
C1543      C1544   1.408       .  A
C1543      C1548   1.519       .  S
C1544      C1545   1.404       .  A
C1544      H1549   1.082       .  S
C1545      C1546   1.417       .  A
C1546      C1550   1.517       .  S
C1547      C1552   1.417       .  A
C1547      C1556   1.403       .  A
C1548      F1564   1.382       .  S
C1548      F1565   1.382       .  S
C1548      F1566   1.385       .  S
C1550      F1561   1.383       .  S
C1550      F1562   1.385       .  S
C1550      F1563   1.381       .  S
C1552      C1553   1.407       .  A
C1552      C1557   1.520       .  S
C1553      C1554   1.404       .  A
C1553      H1558   1.083       .  S
C1554      C1555   1.417       .  A
C1555      C1556   1.409       .  A
C1555      C1559   1.518       .  S
C1556      H1560   1.082       .  S
C1557      F1570   1.385       .  S
C1557      F1571   1.382       .  S
C1557      F1572   1.383       .  S
C1559      F1567   1.383       .  S
C1559      F1568   1.382       .  S
C1559      F1569   1.384       .  S
C1573      C1574   1.402       .  A
C1573      C1578   1.410       .  A
C1573      H1583   1.082       .  S
C1574      C1579   1.485       .  S
C1574      C1575   1.414       .  A
C1575      C1576   1.405       .  A
C1575      C1580   1.521       .  S
C1576      C1577   1.408       .  A
C1576      H1581   1.083       .  S
C1577      C1578   1.419       .  A
C1578      C1582   1.515       .  S
C1579      C1584   1.414       .  A
C1579      C1588   1.400       .  A
C1580      F1596   1.383       .  S
C1580      F1597   1.382       .  S
C1580      F1598   1.385       .  S
C1582      F1593   1.384       .  S
C1582      F1594   1.383       .  S
C1582      F1595   1.382       .  S
C1584      C1585   1.406       .  A
C1584      C1589   1.521       .  S
C1585      C1586   1.408       .  A
C1585      H1590   1.082       .  S
C1586      C1587   1.427       .  A
C1587      C1588   1.410       .  A
C1587      C1591   1.520       .  S
C1588      H1592   1.083       .  S
C1589      F1602   1.384       .  S
C1589      F1603   1.382       .  S
C1589      F1604   1.383       .  S
C1591      F1599   1.385       .  S
C1591      F1600   1.384       .  S
C1591      F1601   1.383       .  S
C1605      C1606   1.399       .  A
C1605      C1610   1.402       .  A
C1605      H1615   1.084       .  S
C1606      C1611   1.481       .  S
C1606      C1607   1.414       .  A
C1607      C1608   1.410       .  A
C1607      C1612   1.517       .  S
C1608      C1609   1.404       .  A
C1608      H1613   1.083       .  S
C1609      C1610   1.417       .  A
C1610      C1614   1.518       .  S
C1611      C1616   1.416       .  A
C1611      C1620   1.402       .  A
C1612      F1628   1.383       .  S
C1612      F1629   1.382       .  S
C1612      F1630   1.384       .  S
C1614      F1625   1.381       .  S
C1614      F1626   1.385       .  S
C1614      F1627   1.382       .  S
C1616      C1617   1.402       .  A
C1616      C1621   1.524       .  S
C1617      C1618   1.405       .  A
C1617      H1622   1.083       .  S
C1618      C1619   1.422       .  A
C1619      C1620   1.412       .  A
C1619      C1623   1.519       .  S
C1620      H1624   1.082       .  S
C1621      F1634   1.385       .  S
C1621      F1635   1.382       .  S
C1621      F1636   1.381       .  S
C1623      F1631   1.385       .  S
C1623      F1632   1.384       .  S
C1623      F1633   1.383       .  S
C1637      C1638   1.402       .  A
C1637      C1642   1.410       .  A
C1637      H1647   1.083       .  S
C1638      C1643   1.484       .  S
C1638      C1639   1.417       .  A
C1639      C1640   1.402       .  A
C1639      C1644   1.522       .  S
C1640      C1641   1.405       .  A
C1640      H1645   1.083       .  S
C1641      C1642   1.421       .  A
C1642      C1646   1.519       .  S
C1643      C1648   1.414       .  A
C1643      C1652   1.400       .  A
C1644      F1660   1.382       .  S
C1644      F1661   1.383       .  S
C1644      F1662   1.385       .  S
C1646      F1657   1.385       .  S
C1646      F1658   1.382       .  S
C1646      F1659   1.384       .  S
C1648      C1649   1.403       .  A
C1648      C1653   1.521       .  S
C1649      C1650   1.408       .  A
C1649      H1654   1.082       .  S
C1650      C1651   1.425       .  A
C1651      C1652   1.408       .  A
C1651      C1655   1.520       .  S
C1652      H1656   1.083       .  S
C1653      F1666   1.385       .  S
C1653      F1667   1.382       .  S
C1653      F1668   1.383       .  S
C1655      F1663   1.385       .  S
C1655      F1664   1.383       .  S
C1655      F1665   1.383       .  S
C1669      C1670   1.401       .  A
C1669      C1674   1.406       .  A
C1669      H1679   1.084       .  S
C1670      C1675   1.492       .  S
C1670      C1671   1.419       .  A
C1671      C1672   1.414       .  A
C1671      C1676   1.518       .  S
C1672      C1673   1.406       .  A
C1672      H1677   1.083       .  S
C1673      C1674   1.424       .  A
C1674      C1678   1.521       .  S
C1675      C1680   1.419       .  A
C1675      C1684   1.402       .  A
C1676      F1692   1.382       .  S
C1676      F1693   1.381       .  S
C1676      F1694   1.384       .  S
C1678      F1689   1.385       .  S
C1678      F1690   1.383       .  S
C1678      F1691   1.384       .  S
C1680      C1681   1.415       .  A
C1680      C1685   1.519       .  S
C1681      C1682   1.406       .  A
C1681      H1686   1.083       .  S
C1682      C1683   1.417       .  A
C1683      C1684   1.405       .  A
C1683      C1687   1.519       .  S
C1684      H1688   1.084       .  S
C1685      F1698   1.385       .  S
C1685      F1699   1.382       .  S
C1685      F1700   1.381       .  S
C1687      F1695   1.382       .  S
C1687      F1696   1.383       .  S
C1687      F1697   1.385       .  S
C1701      C1702   1.400       .  A
C1701      C1706   1.402       .  A
C1701      H1711   1.084       .  S
C1702      C1707   1.477       .  S
C1702      C1703   1.414       .  A
C1703      C1704   1.407       .  A
C1703      C1708   1.519       .  S
C1704      C1705   1.405       .  A
C1704      H1709   1.084       .  S
C1705      C1706   1.419       .  A
C1706      C1710   1.521       .  S
C1707      C1712   1.415       .  A
C1707      C1716   1.400       .  A
C1708      F1724   1.382       .  S
C1708      F1725   1.382       .  S
C1708      F1726   1.384       .  S
C1710      F1721   1.385       .  S
C1710      F1722   1.383       .  S
C1710      F1723   1.383       .  S
C1712      C1713   1.406       .  A
C1712      C1717   1.517       .  S
C1713      C1714   1.403       .  A
C1713      H1718   1.083       .  S
C1714      C1715   1.418       .  A
C1715      C1716   1.401       .  A
C1715      C1719   1.520       .  S
C1716      H1720   1.084       .  S
C1717      F1730   1.385       .  S
C1717      F1731   1.382       .  S
C1717      F1732   1.382       .  S
C1719      F1727   1.383       .  S
C1719      F1728   1.384       .  S
C1719      F1729   1.385       .  S
C1733      C1734   1.401       .  A
C1733      C1738   1.415       .  A
C1733      H1743   1.083       .  S
C1734      C1739   1.491       .  S
C1734      C1735   1.415       .  A
C1735      C1736   1.407       .  A
C1735      C1740   1.522       .  S
C1736      C1737   1.410       .  A
C1736      H1741   1.082       .  S
C1737      C1738   1.426       .  A
C1738      C1742   1.515       .  S
C1739      C1744   1.417       .  A
C1739      C1748   1.403       .  A
C1740      F1756   1.382       .  S
C1740      F1757   1.383       .  S
C1740      F1758   1.384       .  S
C1742      F1753   1.385       .  S
C1742      F1754   1.382       .  S
C1742      F1755   1.380       .  S
C1744      C1745   1.409       .  A
C1744      C1749   1.518       .  S
C1745      C1746   1.403       .  A
C1745      H1750   1.084       .  S
C1746      C1747   1.420       .  A
C1747      C1748   1.408       .  A
C1747      C1751   1.520       .  S
C1748      H1752   1.085       .  S
C1749      F1762   1.384       .  S
C1749      F1763   1.382       .  S
C1749      F1764   1.383       .  S
C1751      F1759   1.383       .  S
C1751      F1760   1.381       .  S
C1751      F1761   1.383       .  S
C1765      C1766   1.401       .  A
C1765      C1770   1.408       .  A
C1765      H1775   1.083       .  S
C1766      C1771   1.491       .  S
C1766      C1767   1.417       .  A
C1767      C1768   1.409       .  A
C1767      C1772   1.520       .  S
C1768      C1769   1.406       .  A
C1768      H1773   1.083       .  S
C1769      C1770   1.424       .  A
C1770      C1774   1.521       .  S
C1771      C1776   1.418       .  A
C1771      C1780   1.402       .  A
C1772      F1788   1.381       .  S
C1772      F1789   1.383       .  S
C1772      F1790   1.385       .  S
C1774      F1785   1.383       .  S
C1774      F1786   1.385       .  S
C1774      F1787   1.383       .  S
C1776      C1777   1.409       .  A
C1776      C1781   1.520       .  S
C1777      C1778   1.405       .  A
C1777      H1782   1.084   1_545  S
C1778      C1779   1.421       .  A
C1779      C1780   1.408       .  A
C1779      C1783   1.521       .  S
C1780      H1784   1.084       .  S
C1781      F1794   1.385       .  S
C1781      F1795   1.381       .  S
C1781      F1796   1.383       .  S
C1783      F1791   1.380       .  S
C1783      F1792   1.384       .  S
C1783      F1793   1.385       .  S
C1797      C1798   1.400       .  A
C1797      C1802   1.410       .  A
C1797      H1807   1.083       .  S
C1798      C1803   1.486       .  S
C1798      C1799   1.413       .  A
C1799      C1800   1.405       .  A
C1799      C1804   1.520       .  S
C1800      C1801   1.410       .  A
C1800      H1805   1.082       .  S
C1801      C1802   1.427       .  A
C1802      C1806   1.519       .  S
C1803      C1808   1.413       .  A
C1803      C1812   1.401       .  A
C1804      F1820   1.382       .  S
C1804      F1821   1.383       .  S
C1804      F1822   1.385       .  S
C1806      F1817   1.383       .  S
C1806      F1818   1.385       .  S
C1806      F1819   1.382       .  S
C1808      C1809   1.404       .  A
C1808      C1813   1.522       .  S
C1809      C1810   1.410       .  A
C1809      H1814   1.082       .  S
C1810      C1811   1.425       .  A
C1811      C1812   1.412       .  A
C1811      C1815   1.519       .  S
C1812      H1816   1.083       .  S
C1813      F1826   1.385       .  S
C1813      F1827   1.382       .  S
C1813      F1828   1.383       .  S
C1815      F1823   1.383       .  S
C1815      F1824   1.383       .  S
C1815      F1825   1.385       .  S
C1829      C1830   1.400       .  A
C1829      C1834   1.403       .  A
C1829      H1839   1.084       .  S
C1830      C1835   1.484       .  S
C1830      C1831   1.415       .  A
C1831      C1832   1.411       .  A
C1831      C1836   1.518       .  S
C1832      C1833   1.405       .  A
C1832      H1837   1.084       .  S
C1833      C1834   1.417       .  A
C1834      C1838   1.520       .  S
C1835      C1840   1.416       .  A
C1835      C1844   1.401       .  A
C1836      F1852   1.383       .  S
C1836      F1853   1.382       .  S
C1836      F1854   1.384       .  S
C1838      F1849   1.385       .  S
C1838      F1850   1.382       .  S
C1838      F1851   1.384       .  S
C1840      C1841   1.405       .  A
C1840      C1845   1.520       .  S
C1841      C1842   1.405       .  A
C1841      H1846   1.083       .  S
C1842      C1843   1.421       .  A
C1843      C1844   1.408       .  A
C1843      C1847   1.519       .  S
C1844      H1848   1.083       .  S
C1845      F1858   1.385       .  S
C1845      F1859   1.382       .  S
C1845      F1860   1.382       .  S
C1847      F1855   1.383       .  S
C1847      F1856   1.384       .  S
C1847      F1857   1.385       .  S
C1861      C1862   1.400       .  A
C1861      C1866   1.407       .  A
C1861      H1871   1.083       .  S
C1862      C1867   1.490       .  S
C1862      C1863   1.416       .  A
C1863      C1864   1.411       .  A
C1863      C1868   1.519       .  S
C1864      C1865   1.409       .  A
C1864      H1869   1.082       .  S
C1865      C1866   1.426       .  A
C1866      C1870   1.520       .  S
C1867      C1872   1.419       .  A
C1867      C1876   1.404       .  A
C1868      F1884   1.382       .  S
C1868      F1885   1.382       .  S
C1868      F1886   1.384       .  S
C1870      F1881   1.385       .  S
C1870      F1882   1.383       .  S
C1870      F1883   1.383       .  S
C1872      C1873   1.408       .  A
C1872      C1877   1.519       .  S
C1873      C1874   1.401       .  A
C1873      H1878   1.084       .  S
C1874      C1875   1.415       .  A
C1875      C1876   1.408       .  A
C1875      C1879   1.517       .  S
C1876      H1880   1.083       .  S
C1877      F1890   1.385       .  S
C1877      F1891   1.381       .  S
C1877      F1892   1.382       .  S
C1879      F1887   1.385       .  S
C1879      F1888   1.382       .  S
C1879      F1889   1.384       .  S
C1893      C1894   1.403       .  A
C1893      C1898   1.408       .  A
C1893      H1903   1.083       .  S
C1894      C1899   1.489       .  S
C1894      C1895   1.417       .  A
C1895      C1896   1.408       .  A
C1895      C1900   1.519       .  S
C1896      C1897   1.403       .  A
C1896      H1901   1.083       .  S
C1897      C1898   1.419       .  A
C1898      C1902   1.519       .  S
C1899      C1904   1.417       .  A
C1899      C1908   1.401       .  A
C1900      F1916   1.382       .  S
C1900      F1917   1.382       .  S
C1900      F1918   1.385       .  S
C1902      F1913   1.383   1_545  S
C1902      F1914   1.385       .  S
C1902      F1915   1.381       .  S
C1904      C1905   1.412       .  A
C1904      C1909   1.519       .  S
C1905      C1906   1.406       .  A
C1905      H1910   1.083       .  S
C1906      C1907   1.420       .  A
C1907      C1908   1.407       .  A
C1907      C1911   1.519       .  S
C1908      H1912   1.083       .  S
C1909      F1922   1.384       .  S
C1909      F1923   1.382       .  S
C1909      F1924   1.382       .  S
C1911      F1919   1.385       .  S
C1911      F1920   1.384       .  S
C1911      F1921   1.382       .  S
C1925      C1926   1.398       .  A
C1925      C1930   1.409       .  A
C1925      H1935   1.083       .  S
C1926      C1931   1.492       .  S
C1926      C1927   1.414       .  A
C1927      C1928   1.412       .  A
C1927      C1932   1.519       .  S
C1928      C1929   1.411       .  A
C1928      H1933   1.082       .  S
C1929      C1930   1.431       .  A
C1930      C1934   1.523       .  S
C1931      C1936   1.418       .  A
C1931      C1940   1.403       .  A
C1932      F1948   1.382       .  S
C1932      F1949   1.382       .  S
C1932      F1950   1.384       .  S
C1934      F1945   1.385       .  S
C1934      F1946   1.383       .  S
C1934      F1947   1.383       .  S
C1936      C1937   1.409       .  A
C1936      C1941   1.519       .  S
C1937      C1938   1.403       .  A
C1937      H1942   1.083       .  S
C1938      C1939   1.420       .  A
C1939      C1940   1.410       .  A
C1939      C1943   1.520   1_565  S
C1940      H1944   1.083       .  S
C1941      F1954   1.385       .  S
C1941      F1955   1.382       .  S
C1941      F1956   1.382       .  S
C1943      F1951   1.383       .  S
C1943      F1952   1.381       .  S
C1943      F1953   1.385       .  S
C1957      C1958   1.403       .  A
C1957      C1962   1.409       .  A
C1957      H1967   1.083       .  S
C1958      C1963   1.491       .  S
C1958      C1959   1.418       .  A
C1959      C1960   1.410       .  A
C1959      C1964   1.519       .  S
C1960      C1961   1.403       .  A
C1960      H1965   1.083       .  S
C1961      C1962   1.418       .  A
C1962      C1966   1.519       .  S
C1963      C1968   1.417       .  A
C1963      C1972   1.402       .  A
C1964      F1980   1.382       .  S
C1964      F1981   1.382       .  S
C1964      F1982   1.384       .  S
C1966      F1977   1.383   1_565  S
C1966      F1978   1.385       .  S
C1966      F1979   1.382       .  S
C1968      C1969   1.412       .  A
C1968      C1973   1.518       .  S
C1969      C1970   1.404       .  A
C1969      H1974   1.083       .  S
C1970      C1971   1.418       .  A
C1971      C1972   1.408       .  A
C1971      C1975   1.516       .  S
C1972      H1976   1.084       .  S
C1973      F1986   1.384       .  S
C1973      F1987   1.382       .  S
C1973      F1988   1.382       .  S
C1975      F1983   1.385       .  S
C1975      F1984   1.384       .  S
C1975      F1985   1.381       .  S
C1989      C1990   1.405       .  A
C1989      C1994   1.413       .  A
C1989      H1999   1.083       .  S
C1990      C1995   1.498       .  S
C1990      C1991   1.419       .  A
C1991      C1992   1.410       .  A
C1991      C1996   1.519       .  S
C1992      C1993   1.404       .  A
C1992      H1997   1.084       .  S
C1993      C1994   1.419       .  A
C1994      C1998   1.518       .  S
C1995      C2000   1.418       .  A
C1995      C2004   1.404       .  A
C1996      F2012   1.382       .  S
C1996      F2013   1.383       .  S
C1996      F2014   1.385       .  S
C1998      F2009   1.382       .  S
C1998      F2010   1.385       .  S
C1998      F2011   1.383       .  S
C2000      C2001   1.411       .  A
C2000      C2005   1.519       .  S
C2001      C2002   1.405       .  A
C2001      H2006   1.083       .  S
C2002      C2003   1.422       .  A
C2003      C2004   1.412       .  A
C2003      C2007   1.520   1_556  S
C2004      H2008   1.083       .  S
C2005      F2018   1.384       .  S
C2005      F2019   1.382       .  S
C2005      F2020   1.383       .  S
C2007      F2015   1.381       .  S
C2007      F2016   1.383       .  S
C2007      F2017   1.385       .  S
C2021      C2022   1.402       .  A
C2021      C2026   1.406       .  A
C2021      H2031   1.083       .  S
C2022      C2027   1.485       .  S
C2022      C2023   1.418       .  A
C2023      C2024   1.407       .  A
C2023      C2028   1.520       .  S
C2024      C2025   1.401       .  A
C2024      H2029   1.083       .  S
C2025      C2026   1.415       .  A
C2026      C2030   1.519       .  S
C2027      C2032   1.416       .  A
C2027      C2036   1.400       .  A
C2028      F2044   1.382       .  S
C2028      F2045   1.382       .  S
C2028      F2046   1.384       .  S
C2030      F2041   1.383       .  S
C2030      F2042   1.384       .  S
C2030      F2043   1.382       .  S
C2032      C2033   1.408       .  A
C2032      C2037   1.519       .  S
C2033      C2034   1.404       .  A
C2033      H2038   1.083       .  S
C2034      C2035   1.419       .  A
C2035      C2036   1.406       .  A
C2035      C2039   1.517       .  S
C2036      H2040   1.083       .  S
C2037      F2050   1.384       .  S
C2037      F2051   1.382       .  S
C2037      F2052   1.383       .  S
C2039      F2047   1.384       .  S
C2039      F2048   1.382       .  S
C2039      F2049   1.385       .  S
C2053      C2054   1.402       .  A
C2053      C2058   1.406       .  A
C2053      H2063   1.083       .  S
C2054      C2059   1.480       .  S
C2054      C2055   1.415       .  A
C2055      C2056   1.404       .  A
C2055      C2060   1.520       .  S
C2056      C2057   1.403       .  A
C2056      H2061   1.084       .  S
C2057      C2058   1.416       .  A
C2058      C2062   1.518       .  S
C2059      C2064   1.415       .  A
C2059      C2068   1.401       .  A
C2060      F2076   1.382       .  S
C2060      F2077   1.382       .  S
C2060      F2078   1.385       .  S
C2062      F2073   1.385       .  S
C2062      F2074   1.384       .  S
C2062      F2075   1.382       .  S
C2064      C2065   1.404       .  A
C2064      C2069   1.520       .  S
C2065      C2066   1.404       .  A
C2065      H2070   1.083       .  S
C2066      C2067   1.419       .  A
C2067      C2068   1.407       .  A
C2067      C2071   1.520   1_565  S
C2068      H2072   1.083       .  S
C2069      F2082   1.384       .  S
C2069      F2083   1.382       .  S
C2069      F2084   1.382       .  S
C2071      F2079   1.385       .  S
C2071      F2080   1.381       .  S
C2071      F2081   1.383       .  S
C2085      C2086   1.402       .  A
C2085      C2090   1.408       .  A
C2085      H2095   1.083       .  S
C2086      C2091   1.487       .  S
C2086      C2087   1.417       .  A
C2087      C2088   1.407       .  A
C2087      C2092   1.519       .  S
C2088      C2089   1.402       .  A
C2088      H2093   1.083       .  S
C2089      C2090   1.418       .  A
C2090      C2094   1.518       .  S
C2091      C2096   1.415       .  A
C2091      C2100   1.402       .  A
C2092      F2108   1.382       .  S
C2092      F2109   1.383       .  S
C2092      F2110   1.384       .  S
C2094      F2105   1.385       .  S
C2094      F2106   1.381       .  S
C2094      F2107   1.383       .  S
C2096      C2097   1.405       .  A
C2096      C2101   1.520       .  S
C2097      C2098   1.407       .  A
C2097      H2102   1.082       .  S
C2098      C2099   1.422       .  A
C2099      C2100   1.410       .  A
C2099      C2103   1.519       .  S
C2100      H2104   1.082       .  S
C2101      F2114   1.385       .  S
C2101      F2115   1.382       .  S
C2101      F2116   1.383       .  S
C2103      F2111   1.382       .  S
C2103      F2112   1.384       .  S
C2103      F2113   1.385       .  S
C2117      C2118   1.403       .  A
C2117      C2122   1.407       .  A
C2117      H2127   1.083       .  S
C2118      C2123   1.486       .  S
C2118      C2119   1.417       .  A
C2119      C2120   1.408       .  A
C2119      C2124   1.519       .  S
C2120      C2121   1.403       .  A
C2120      H2125   1.084       .  S
C2121      C2122   1.414       .  A
C2122      C2126   1.517       .  S
C2123      C2128   1.418       .  A
C2123      C2132   1.401       .  A
C2124      F2140   1.382       .  S
C2124      F2141   1.382       .  S
C2124      F2142   1.384       .  S
C2126      F2137   1.383   1_554  S
C2126      F2138   1.381   1_554  S
C2126      F2139   1.384       .  S
C2128      C2129   1.411       .  A
C2128      C2133   1.519       .  S
C2129      C2130   1.403       .  A
C2129      H2134   1.084       .  S
C2130      C2131   1.415       .  A
C2131      C2132   1.406       .  A
C2131      C2135   1.518       .  S
C2132      H2136   1.084       .  S
C2133      F2146   1.384       .  S
C2133      F2147   1.382       .  S
C2133      F2148   1.382       .  S
C2135      F2143   1.383       .  S
C2135      F2144   1.383       .  S
C2135      F2145   1.384       .  S
C2149      C2150   1.400       .  A
C2149      C2154   1.403       .  A
C2149      H2159   1.084       .  S
C2150      C2155   1.481       .  S
C2150      C2151   1.416       .  A
C2151      C2152   1.409       .  A
C2151      C2156   1.519       .  S
C2152      C2153   1.402       .  A
C2152      H2157   1.084       .  S
C2153      C2154   1.416       .  A
C2154      C2158   1.518       .  S
C2155      C2160   1.417       .  A
C2155      C2164   1.402       .  A
C2156      F2172   1.382       .  S
C2156      F2173   1.382       .  S
C2156      F2174   1.385       .  S
C2158      F2169   1.382       .  S
C2158      F2170   1.385       .  S
C2158      F2171   1.382       .  S
C2160      C2161   1.406       .  A
C2160      C2165   1.520       .  S
C2161      C2162   1.401       .  A
C2161      H2166   1.083       .  S
C2162      C2163   1.414       .  A
C2163      C2164   1.406       .  A
C2163      C2167   1.518   1_554  S
C2164      H2168   1.083       .  S
C2165      F2178   1.385       .  S
C2165      F2179   1.382       .  S
C2165      F2180   1.381       .  S
C2167      F2175   1.383       .  S
C2167      F2176   1.382       .  S
C2167      F2177   1.384       .  S
C2181      C2182   1.398       .  A
C2181      C2186   1.403       .  A
C2181      H2191   1.084       .  S
C2182      C2187   1.484       .  S
C2182      C2183   1.417       .  A
C2183      C2184   1.411       .  A
C2183      C2188   1.519       .  S
C2184      C2185   1.406       .  A
C2184      H2189   1.084       .  S
C2185      C2186   1.420       .  A
C2186      C2190   1.517       .  S
C2187      C2192   1.418       .  A
C2187      C2196   1.403       .  A
C2188      F2204   1.382       .  S
C2188      F2205   1.383       .  S
C2188      F2206   1.385       .  S
C2190      F2201   1.383       .  S
C2190      F2202   1.385       .  S
C2190      F2203   1.383       .  S
C2192      C2193   1.406       .  A
C2192      C2197   1.520       .  S
C2193      C2194   1.402       .  A
C2193      H2198   1.083       .  S
C2194      C2195   1.415       .  A
C2195      C2196   1.406       .  A
C2195      C2199   1.519       .  S
C2196      H2200   1.083       .  S
C2197      F2210   1.385       .  S
C2197      F2211   1.381       .  S
C2197      F2212   1.382       .  S
C2199      F2207   1.385       .  S
C2199      F2208   1.381       .  S
C2199      F2209   1.384   1_556  S
C2213      C2214   1.399       .  A
C2213      C2218   1.407       .  A
C2213      H2223   1.083       .  S
C2214      C2219   1.484       .  S
C2214      C2215   1.416       .  A
C2215      C2216   1.406       .  A
C2215      C2220   1.521       .  S
C2216      C2217   1.407       .  A
C2216      H2221   1.083       .  S
C2217      C2218   1.423       .  A
C2218      C2222   1.518       .  S
C2219      C2224   1.416       .  A
C2219      C2228   1.401       .  A
C2220      F2236   1.382       .  S
C2220      F2237   1.383       .  S
C2220      F2238   1.384       .  S
C2222      F2233   1.383       .  S
C2222      F2234   1.385       .  S
C2222      F2235   1.382       .  S
C2224      C2225   1.403       .  A
C2224      C2229   1.521       .  S
C2225      C2226   1.405       .  A
C2225      H2230   1.083       .  S
C2226      C2227   1.421       .  A
C2227      C2228   1.408       .  A
C2227      C2231   1.518       .  S
C2228      H2232   1.083       .  S
C2229      F2242   1.385       .  S
C2229      F2243   1.382       .  S
C2229      F2244   1.383       .  S
C2231      F2239   1.382       .  S
C2231      F2240   1.383       .  S
C2231      F2241   1.385       .  S
C2245      C2246   1.401       .  A
C2245      C2250   1.407       .  A
C2245      H2255   1.083       .  S
C2246      C2251   1.480       .  S
C2246      C2247   1.414       .  A
C2247      C2248   1.403       .  A
C2247      C2252   1.520       .  S
C2248      C2249   1.404       .  A
C2248      H2253   1.083       .  S
C2249      C2250   1.418       .  A
C2250      C2254   1.516       .  S
C2251      C2256   1.415       .  A
C2251      C2260   1.401       .  A
C2252      F2268   1.382       .  S
C2252      F2269   1.382       .  S
C2252      F2270   1.385       .  S
C2254      F2265   1.384       .  S
C2254      F2266   1.383       .  S
C2254      F2267   1.383       .  S
C2256      C2257   1.404       .  A
C2256      C2261   1.521       .  S
C2257      C2258   1.404       .  A
C2257      H2262   1.083       .  S
C2258      C2259   1.417       .  A
C2259      C2260   1.408       .  A
C2259      C2263   1.515       .  S
C2260      H2264   1.083       .  S
C2261      F2274   1.385       .  S
C2261      F2275   1.382       .  S
C2261      F2276   1.382       .  S
C2263      F2271   1.382       .  S
C2263      F2272   1.382       .  S
C2263      F2273   1.385       .  S
C2277      C2278   1.404       .  A
C2277      C2282   1.406       .  A
C2277      H2287   1.083       .  S
C2278      C2283   1.485       .  S
C2278      C2279   1.420       .  A
C2279      C2280   1.406       .  A
C2279      C2284   1.518       .  S
C2280      C2281   1.400       .  A
C2280      H2285   1.084       .  S
C2281      C2282   1.414       .  A
C2282      C2286   1.518       .  S
C2283      C2288   1.415       .  A
C2283      C2292   1.400       .  A
C2284      F2300   1.383       .  S
C2284      F2301   1.382       .  S
C2284      F2302   1.383       .  S
C2286      F2297   1.385       .  S
C2286      F2298   1.382       .  S
C2286      F2299   1.384       .  S
C2288      C2289   1.409       .  A
C2288      C2293   1.517       .  S
C2289      C2290   1.407       .  A
C2289      H2294   1.083       .  S
C2290      C2291   1.424       .  A
C2291      C2292   1.404       .  A
C2291      C2295   1.523       .  S
C2292      H2296   1.084       .  S
C2293      F2306   1.385       .  S
C2293      F2307   1.381       .  S
C2293      F2308   1.383       .  S
C2295      F2303   1.383       .  S
C2295      F2304   1.384       .  S
C2295      F2305   1.385       .  S
C2309      C2310   1.401       .  A
C2309      C2314   1.409       .  A
C2309      H2319   1.083       .  S
C2310      C2315   1.489       .  S
C2310      C2311   1.416       .  A
C2311      C2312   1.409       .  A
C2311      C2316   1.519       .  S
C2312      C2313   1.406       .  A
C2312      H2317   1.083       .  S
C2313      C2314   1.421       .  A
C2314      C2318   1.516       .  S
C2315      C2320   1.417       .  A
C2315      C2324   1.403       .  A
C2316      F2332   1.382       .  S
C2316      F2333   1.383       .  S
C2316      F2334   1.384       .  S
C2318      F2329   1.381       .  S
C2318      F2330   1.385       .  S
C2318      F2331   1.384       .  S
C2320      C2321   1.405       .  A
C2320      C2325   1.520       .  S
C2321      C2322   1.404       .  A
C2321      H2326   1.083       .  S
C2322      C2323   1.419       .  A
C2323      C2324   1.411       .  A
C2323      C2327   1.518       .  S
C2324      H2328   1.083       .  S
C2325      F2338   1.385       .  S
C2325      F2339   1.382       .  S
C2325      F2340   1.383       .  S
C2327      F2335   1.383       .  S
C2327      F2336   1.382       .  S
C2327      F2337   1.385       .  S
C2341      C2342   1.399       .  A
C2341      C2346   1.406       .  A
C2341      H2351   1.083       .  S
C2342      C2347   1.480       .  S
C2342      C2343   1.414       .  A
C2343      C2344   1.403       .  A
C2343      C2348   1.521       .  S
C2344      C2345   1.408       .  A
C2344      H2349   1.083       .  S
C2345      C2346   1.422       .  A
C2346      C2350   1.517       .  S
C2347      C2352   1.414       .  A
C2347      C2356   1.402       .  A
C2348      F2364   1.382       .  S
C2348      F2365   1.383       .  S
C2348      F2366   1.385       .  S
C2350      F2361   1.383       .  S
C2350      F2362   1.385       .  S
C2350      F2363   1.381       .  S
C2352      C2353   1.400       .  A
C2352      C2357   1.522       .  S
C2353      C2354   1.405       .  A
C2353      H2358   1.083       .  S
C2354      C2355   1.419       .  A
C2355      C2356   1.408       .  A
C2355      C2359   1.517       .  S
C2356      H2360   1.083       .  S
C2357      F2370   1.385       .  S
C2357      F2371   1.382       .  S
C2357      F2372   1.383       .  S
C2359      F2367   1.385       .  S
C2359      F2368   1.382       .  S
C2359      F2369   1.383       .  S
C2373      C2374   1.403       .  A
C2373      C2378   1.411       .  A
C2373      H2383   1.083       .  S
C2374      C2379   1.485       .  S
C2374      C2375   1.415       .  A
C2375      C2376   1.402       .  A
C2375      C2380   1.521       .  S
C2376      C2377   1.406       .  A
C2376      H2381   1.083       .  S
C2377      C2378   1.421       .  A
C2378      C2382   1.518       .  S
C2379      C2384   1.414       .  A
C2379      C2388   1.400       .  A
C2380      F2396   1.382       .  S
C2380      F2397   1.383       .  S
C2380      F2398   1.385       .  S
C2382      F2393   1.385       .  S
C2382      F2394   1.383       .  S
C2382      F2395   1.383       .  S
C2384      C2385   1.405       .  A
C2384      C2389   1.521       .  S
C2385      C2386   1.409       .  A
C2385      H2390   1.082       .  S
C2386      C2387   1.426       .  A
C2387      C2388   1.409       .  A
C2387      C2391   1.520       .  S
C2388      H2392   1.083       .  S
C2389      F2402   1.385       .  S
C2389      F2403   1.382       .  S
C2389      F2404   1.383       .  S
C2391      F2399   1.385       .  S
C2391      F2400   1.384       .  S
C2391      F2401   1.383       .  S
C2405      C2406   1.398       .  A
C2405      C2410   1.399       .  A
C2405      H2415   1.084       .  S
C2406      C2411   1.476       .  S
C2406      C2407   1.413       .  A
C2407      C2408   1.408       .  A
C2407      C2412   1.517       .  S
C2408      C2409   1.405       .  A
C2408      H2413   1.083       .  S
C2409      C2410   1.419       .  A
C2410      C2414   1.522       .  S
C2411      C2416   1.413       .  A
C2411      C2420   1.400       .  A
C2412      F2428   1.383       .  S
C2412      F2429   1.382       .  S
C2412      F2430   1.384       .  S
C2414      F2425   1.383       .  S
C2414      F2426   1.384       .  S
C2414      F2427   1.384       .  S
C2416      C2417   1.399       .  A
C2416      C2421   1.523       .  S
C2417      C2418   1.408       .  A
C2417      H2422   1.083       .  S
C2418      C2419   1.423       .  A
C2419      C2420   1.410       .  A
C2419      C2423   1.518       .  S
C2420      H2424   1.083       .  S
C2421      F2434   1.385       .  S
C2421      F2435   1.382       .  S
C2421      F2436   1.382       .  S
C2423      F2431   1.385       .  S
C2423      F2432   1.383       .  S
C2423      F2433   1.383       .  S
C2437      C2438   1.402       .  A
C2437      C2442   1.410       .  A
C2437      H2447   1.083       .  S
C2438      C2443   1.491       .  S
C2438      C2439   1.417       .  A
C2439      C2440   1.407       .  A
C2439      C2444   1.520       .  S
C2440      C2441   1.406       .  A
C2440      H2445   1.083       .  S
C2441      C2442   1.422       .  A
C2442      C2446   1.519       .  S
C2443      C2448   1.417       .  A
C2443      C2452   1.403       .  A
C2444      F2460   1.382       .  S
C2444      F2461   1.383       .  S
C2444      F2462   1.384       .  S
C2446      F2457   1.382       .  S
C2446      F2458   1.385       .  S
C2446      F2459   1.384       .  S
C2448      C2449   1.406       .  A
C2448      C2453   1.521       .  S
C2449      C2450   1.406       .  A
C2449      H2454   1.083       .  S
C2450      C2451   1.421       .  A
C2451      C2452   1.412       .  A
C2451      C2455   1.519       .  S
C2452      H2456   1.083       .  S
C2453      F2466   1.385       .  S
C2453      F2467   1.382       .  S
C2453      F2468   1.383       .  S
C2455      F2463   1.382       .  S
C2455      F2464   1.384       .  S
C2455      F2465   1.384       .  S
C2469      C2470   1.404       .  A
C2469      C2474   1.412       .  A
C2469      H2479   1.083       .  S
C2470      C2475   1.487       .  S
C2470      C2471   1.415       .  A
C2471      C2472   1.404       .  A
C2471      C2476   1.521       .  S
C2472      C2473   1.406       .  A
C2472      H2477   1.084       .  S
C2473      C2474   1.420       .  A
C2474      C2478   1.517       .  S
C2475      C2480   1.415       .  A
C2475      C2484   1.401       .  A
C2476      F2492   1.382       .  S
C2476      F2493   1.383       .  S
C2476      F2494   1.385       .  S
C2478      F2489   1.385       .  S
C2478      F2490   1.383       .  S
C2478      F2491   1.384       .  S
C2480      C2481   1.407       .  A
C2480      C2485   1.519       .  S
C2481      C2482   1.406       .  A
C2481      H2486   1.083       .  S
C2482      C2483   1.422       .  A
C2483      C2484   1.409       .  A
C2483      C2487   1.519       .  S
C2484      H2488   1.083       .  S
C2485      F2498   1.385       .  S
C2485      F2499   1.382       .  S
C2485      F2500   1.383       .  S
C2487      F2495   1.385       .  S
C2487      F2496   1.384       .  S
C2487      F2497   1.382       .  S
C2501      C2502   1.403       .  A
C2501      C2506   1.408       .  A
C2501      H2511   1.084       .  S
C2502      C2507   1.490       .  S
C2502      C2503   1.418       .  A
C2503      C2504   1.409       .  A
C2503      C2508   1.519       .  S
C2504      C2505   1.404       .  A
C2504      H2509   1.084       .  S
C2505      C2506   1.417       .  A
C2506      C2510   1.519       .  S
C2507      C2512   1.417       .  A
C2507      C2516   1.401       .  A
C2508      F2524   1.382       .  S
C2508      F2525   1.382       .  S
C2508      F2526   1.385       .  S
C2510      F2521   1.384   1_554  S
C2510      F2522   1.385   1_554  S
C2510      F2523   1.381       .  S
C2512      C2513   1.410       .  A
C2512      C2517   1.519       .  S
C2513      C2514   1.405       .  A
C2513      H2518   1.083       .  S
C2514      C2515   1.422       .  A
C2515      C2516   1.407       .  A
C2515      C2519   1.519       .  S
C2516      H2520   1.083       .  S
C2517      F2530   1.385       .  S
C2517      F2531   1.381       .  S
C2517      F2532   1.382       .  S
C2519      F2527   1.382       .  S
C2519      F2528   1.383       .  S
C2519      F2529   1.385       .  S
C2533      C2534   1.402       .  A
C2533      C2538   1.407       .  A
C2533      H2543   1.084       .  S
C2534      C2539   1.487       .  S
C2534      C2535   1.416       .  A
C2535      C2536   1.408       .  A
C2535      C2540   1.519       .  S
C2536      C2537   1.405       .  A
C2536      H2541   1.084       .  S
C2537      C2538   1.420       .  A
C2538      C2542   1.520   1_655  S
C2539      C2544   1.417       .  A
C2539      C2548   1.403       .  A
C2540      F2556   1.382       .  S
C2540      F2557   1.382       .  S
C2540      F2558   1.385       .  S
C2542      F2553   1.383       .  S
C2542      F2554   1.385       .  S
C2542      F2555   1.381       .  S
C2544      C2545   1.407       .  A
C2544      C2549   1.521       .  S
C2545      C2546   1.404       .  A
C2545      H2550   1.084       .  S
C2546      C2547   1.417       .  A
C2547      C2548   1.409       .  A
C2547      C2551   1.518       .  S
C2548      H2552   1.084       .  S
C2549      F2562   1.384       .  S
C2549      F2563   1.382       .  S
C2549      F2564   1.382       .  S
C2551      F2559   1.384       .  S
C2551      F2560   1.384       .  S
C2551      F2561   1.382       .  S
C2565      C2566   1.399       .  A
C2565      C2570   1.401       .  A
C2565      H2575   1.084       .  S
C2566      C2571   1.479       .  S
C2566      C2567   1.415       .  A
C2567      C2568   1.410       .  A
C2567      C2572   1.517       .  S
C2568      C2569   1.404       .  A
C2568      H2573   1.083       .  S
C2569      C2570   1.417       .  A
C2570      C2574   1.520       .  S
C2571      C2576   1.415       .  A
C2571      C2580   1.400       .  A
C2572      F2588   1.383       .  S
C2572      F2589   1.382       .  S
C2572      F2590   1.384       .  S
C2574      F2585   1.382       .  S
C2574      F2586   1.384       .  S
C2574      F2587   1.384       .  S
C2576      C2577   1.403       .  A
C2576      C2581   1.524       .  S
C2577      C2578   1.408       .  A
C2577      H2582   1.083       .  S
C2578      C2579   1.424       .  A
C2579      C2580   1.410       .  A
C2579      C2583   1.519       .  S
C2580      H2584   1.083       .  S
C2581      F2594   1.385       .  S
C2581      F2595   1.382       .  S
C2581      F2596   1.381       .  S
C2583      F2591   1.385       .  S
C2583      F2592   1.384       .  S
C2583      F2593   1.383       .  S
C2597      C2598   1.403       .  A
C2597      C2602   1.412       .  A
C2597      H2607   1.083       .  S
C2598      C2603   1.487       .  S
C2598      C2599   1.416       .  A
C2599      C2600   1.405       .  A
C2599      C2604   1.521       .  S
C2600      C2601   1.403       .  A
C2600      H2605   1.084       .  S
C2601      C2602   1.419       .  A
C2602      C2606   1.518       .  S
C2603      C2608   1.415       .  A
C2603      C2612   1.403       .  A
C2604      F2620   1.382       .  S
C2604      F2621   1.383       .  S
C2604      F2622   1.384       .  S
C2606      F2617   1.384       .  S
C2606      F2618   1.385       .  S
C2606      F2619   1.382       .  S
C2608      C2609   1.404       .  A
C2608      C2613   1.521       .  S
C2609      C2610   1.406       .  A
C2609      H2614   1.083       .  S
C2610      C2611   1.421       .  A
C2611      C2612   1.412       .  A
C2611      C2615   1.518       .  S
C2612      H2616   1.083       .  S
C2613      F2626   1.385       .  S
C2613      F2627   1.382       .  S
C2613      F2628   1.383       .  S
C2615      F2623   1.383       .  S
C2615      F2624   1.384       .  S
C2615      F2625   1.384       .  S
C2629      C2630   1.402       .  A
C2629      C2634   1.406       .  A
C2629      H2639   1.083       .  S
C2630      C2635   1.484       .  S
C2630      C2631   1.417       .  A
C2631      C2632   1.408       .  A
C2631      C2636   1.519       .  S
C2632      C2633   1.403       .  A
C2632      H2637   1.083       .  S
C2633      C2634   1.418       .  A
C2634      C2638   1.520       .  S
C2635      C2640   1.417       .  A
C2635      C2644   1.399       .  A
C2636      F2652   1.382       .  S
C2636      F2653   1.382       .  S
C2636      F2654   1.384       .  S
C2638      F2649   1.385       .  S
C2638      F2650   1.383       .  S
C2638      F2651   1.384       .  S
C2640      C2641   1.412       .  A
C2640      C2645   1.517       .  S
C2641      C2642   1.404       .  A
C2641      H2646   1.083       .  S
C2642      C2643   1.421       .  A
C2643      C2644   1.402       .  A
C2643      C2647   1.522       .  S
C2644      H2648   1.084       .  S
C2645      F2658   1.384       .  S
C2645      F2659   1.382       .  S
C2645      F2660   1.382       .  S
C2647      F2655   1.383       .  S
C2647      F2656   1.384       .  S
C2647      F2657   1.385       .  S
C2661      C2662   1.403       .  A
C2661      C2666   1.409       .  A
C2661      H2671   1.083       .  S
C2662      C2667   1.490       .  S
C2662      C2663   1.417       .  A
C2663      C2664   1.409       .  A
C2663      C2668   1.519       .  S
C2664      C2665   1.403       .  A
C2664      H2669   1.083       .  S
C2665      C2666   1.418       .  A
C2666      C2670   1.518       .  S
C2667      C2672   1.417       .  A
C2667      C2676   1.403       .  A
C2668      F2684   1.382       .  S
C2668      F2685   1.382       .  S
C2668      F2686   1.385       .  S
C2670      F2681   1.385       .  S
C2670      F2682   1.381       .  S
C2670      F2683   1.383       .  S
C2672      C2673   1.409       .  A
C2672      C2677   1.520       .  S
C2673      C2674   1.404       .  A
C2673      H2678   1.084       .  S
C2674      C2675   1.418       .  A
C2675      C2676   1.410       .  A
C2675      C2679   1.518       .  S
C2676      H2680   1.084       .  S
C2677      F2690   1.385       .  S
C2677      F2691   1.382       .  S
C2677      F2692   1.382       .  S
C2679      F2687   1.385       .  S
C2679      F2688   1.384       .  S
C2679      F2689   1.382       .  S
C2693      C2694   1.402       .  A
C2693      C2698   1.407       .  A
C2693      H2703   1.084       .  S
C2694      C2699   1.489       .  S
C2694      C2695   1.417       .  A
C2695      C2696   1.410       .  A
C2695      C2700   1.519       .  S
C2696      C2697   1.406       .  A
C2696      H2701   1.083       .  S
C2697      C2698   1.420       .  A
C2698      C2702   1.520       .  S
C2699      C2704   1.417       .  A
C2699      C2708   1.402       .  A
C2700      F2716   1.382       .  S
C2700      F2717   1.382       .  S
C2700      F2718   1.385       .  S
C2702      F2713   1.385       .  S
C2702      F2714   1.381       .  S
C2702      F2715   1.384   1_455  S
C2704      C2705   1.409       .  A
C2704      C2709   1.519       .  S
C2705      C2706   1.405       .  A
C2705      H2710   1.084       .  S
C2706      C2707   1.421       .  A
C2707      C2708   1.409       .  A
C2707      C2711   1.520       .  S
C2708      H2712   1.084       .  S
C2709      F2722   1.385       .  S
C2709      F2723   1.382       .  S
C2709      F2724   1.382       .  S
C2711      F2719   1.385       .  S
C2711      F2720   1.384       .  S
C2711      F2721   1.382       .  S
C2725      C2726   1.401       .  A
C2725      C2730   1.406       .  A
C2725      H2735   1.083       .  S
C2726      C2731   1.486       .  S
C2726      C2727   1.418       .  A
C2727      C2728   1.410       .  A
C2727      C2732   1.520       .  S
C2728      C2729   1.403       .  A
C2728      H2733   1.083       .  S
C2729      C2730   1.416       .  A
C2730      C2734   1.516       .  S
C2731      C2736   1.413       .  A
C2731      C2740   1.395       .  A
C2732      F2748   1.382       .  S
C2732      F2749   1.382       .  S
C2732      F2750   1.384       .  S
C2734      F2745   1.378   1_554  S
C2734      F2746   1.384       .  S
C2734      F2747   1.381       .  S
C2736      C2737   1.411       .  A
C2736      C2741   1.518       .  S
C2737      C2738   1.412       .  A
C2737      H2742   1.082       .  S
C2738      C2739   1.434       .  A
C2739      C2740   1.405       .  A
C2739      C2743   1.522       .  S
C2740      H2744   1.083       .  S
C2741      F2754   1.385       .  S
C2741      F2755   1.382       .  S
C2741      F2756   1.382       .  S
C2743      F2751   1.385       .  S
C2743      F2752   1.384       .  S
C2743      F2753   1.381       .  S
C2757      C2758   1.403       .  A
C2757      C2762   1.409       .  A
C2757      H2767   1.083       .  S
C2758      C2763   1.487       .  S
C2758      C2759   1.416       .  A
C2759      C2760   1.408       .  A
C2759      C2764   1.520       .  S
C2760      C2761   1.404       .  A
C2760      H2765   1.083       .  S
C2761      C2762   1.417       .  A
C2762      C2766   1.517       .  S
C2763      C2768   1.417       .  A
C2763      C2772   1.401       .  A
C2764      F2780   1.382       .  S
C2764      F2781   1.382       .  S
C2764      F2782   1.384       .  S
C2766      F2777   1.385       .  S
C2766      F2778   1.383       .  S
C2766      F2779   1.381       .  S
C2768      C2769   1.409       .  A
C2768      C2773   1.519       .  S
C2769      C2770   1.404       .  A
C2769      H2774   1.084       .  S
C2770      C2771   1.418       .  A
C2771      C2772   1.406       .  A
C2771      C2775   1.516   1_455  S
C2772      H2776   1.084       .  S
C2773      F2786   1.385       .  S
C2773      F2787   1.382       .  S
C2773      F2788   1.382       .  S
C2775      F2783   1.385       .  S
C2775      F2784   1.380       .  S
C2775      F2785   1.384       .  S
C2789      C2790   1.403       .  A
C2789      C2794   1.405       .  A
C2789      H2799   1.084       .  S
C2790      C2795   1.482       .  S
C2790      C2791   1.416       .  A
C2791      C2792   1.406       .  A
C2791      C2796   1.519       .  S
C2792      C2793   1.402       .  A
C2792      H2797   1.084       .  S
C2793      C2794   1.414       .  A
C2794      C2798   1.518       .  S
C2795      C2800   1.416       .  A
C2795      C2804   1.404       .  A
C2796      F2812   1.382       .  S
C2796      F2813   1.382       .  S
C2796      F2814   1.385       .  S
C2798      F2809   1.385       .  S
C2798      F2810   1.383       .  S
C2798      F2811   1.382       .  S
C2800      C2801   1.403       .  A
C2800      C2805   1.520       .  S
C2801      C2802   1.399       .  A
C2801      H2806   1.083       .  S
C2802      C2803   1.413       .  A
C2803      C2804   1.408       .  A
C2803      C2807   1.516       .  S
C2804      H2808   1.083       .  S
C2805      F2818   1.385       .  S
C2805      F2819   1.382       .  S
C2805      F2820   1.382       .  S
C2807      F2815   1.385       .  S
C2807      F2816   1.383       .  S
C2807      F2817   1.383       .  S
C2821      C2822   1.404       .  A
C2821      C2826   1.409       .  A
C2821      H2831   1.083       .  S
C2822      C2827   1.485       .  S
C2822      C2823   1.417       .  A
C2823      C2824   1.403       .  A
C2823      C2828   1.520       .  S
C2824      C2825   1.400       .  A
C2824      H2829   1.083       .  S
C2825      C2826   1.417       .  A
C2826      C2830   1.519       .  S
C2827      C2832   1.414       .  A
C2827      C2836   1.401       .  A
C2828      F2844   1.382       .  S
C2828      F2845   1.383       .  S
C2828      F2846   1.385       .  S
C2830      F2841   1.384       .  S
C2830      F2842   1.381       .  S
C2830      F2843   1.383       .  S
C2832      C2833   1.406       .  A
C2832      C2837   1.520       .  S
C2833      C2834   1.407       .  A
C2833      H2838   1.083       .  S
C2834      C2835   1.423       .  A
C2835      C2836   1.408       .  A
C2835      C2839   1.519       .  S
C2836      H2840   1.083       .  S
C2837      F2850   1.385       .  S
C2837      F2851   1.382       .  S
C2837      F2852   1.383       .  S
C2839      F2847   1.382       .  S
C2839      F2848   1.384       .  S
C2839      F2849   1.385       .  S
C2853      C2854   1.401       .  A
C2853      C2858   1.405       .  A
C2853      H2863   1.083       .  S
C2854      C2859   1.482       .  S
C2854      C2855   1.414       .  A
C2855      C2856   1.407       .  A
C2855      C2860   1.519       .  S
C2856      C2857   1.405       .  A
C2856      H2861   1.083       .  S
C2857      C2858   1.419       .  A
C2858      C2862   1.518       .  S
C2859      C2864   1.415       .  A
C2859      C2868   1.402       .  A
C2860      F2876   1.382       .  S
C2860      F2877   1.382       .  S
C2860      F2878   1.384       .  S
C2862      F2873   1.382       .  S
C2862      F2874   1.385       .  S
C2862      F2875   1.383       .  S
C2864      C2865   1.405       .  A
C2864      C2869   1.520       .  S
C2865      C2866   1.403       .  A
C2865      H2870   1.084       .  S
C2866      C2867   1.417       .  A
C2867      C2868   1.407       .  A
C2867      C2871   1.519       .  S
C2868      H2872   1.083       .  S
C2869      F2882   1.385       .  S
C2869      F2883   1.382       .  S
C2869      F2884   1.382       .  S
C2871      F2879   1.385       .  S
C2871      F2880   1.381       .  S
C2871      F2881   1.383       .  S
C2885      C2886   1.401       .  A
C2885      C2890   1.407       .  A
C2885      H2895   1.083       .  S
C2886      C2891   1.483       .  S
C2886      C2887   1.416       .  A
C2887      C2888   1.407       .  A
C2887      C2892   1.519       .  S
C2888      C2889   1.404       .  A
C2888      H2893   1.083       .  S
C2889      C2890   1.418       .  A
C2890      C2894   1.519       .  S
C2891      C2896   1.416       .  A
C2891      C2900   1.401       .  A
C2892      F2908   1.383       .  S
C2892      F2909   1.382       .  S
C2892      F2910   1.385       .  S
C2894      F2905   1.385       .  S
C2894      F2906   1.384   1_556  S
C2894      F2907   1.381       .  S
C2896      C2897   1.407       .  A
C2896      C2901   1.519       .  S
C2897      C2898   1.404       .  A
C2897      H2902   1.084       .  S
C2898      C2899   1.417       .  A
C2899      C2900   1.406       .  A
C2899      C2903   1.517       .  S
C2900      H2904   1.084       .  S
C2901      F2914   1.385       .  S
C2901      F2915   1.383       .  S
C2901      F2916   1.382       .  S
C2903      F2911   1.385       .  S
C2903      F2912   1.382       .  S
C2903      F2913   1.383       .  S
C2917      C2918   1.402       .  A
C2917      C2922   1.407       .  A
C2917      H2927   1.083       .  S
C2918      C2923   1.486       .  S
C2918      C2919   1.416       .  A
C2919      C2920   1.408       .  A
C2919      C2924   1.520       .  S
C2920      C2921   1.405       .  A
C2920      H2925   1.083       .  S
C2921      C2922   1.417       .  A
C2922      C2926   1.519   1_556  S
C2923      C2928   1.416       .  A
C2923      C2932   1.404       .  A
C2924      F2940   1.382       .  S
C2924      F2941   1.383       .  S
C2924      F2942   1.384       .  S
C2926      F2937   1.385       .  S
C2926      F2938   1.381       .  S
C2926      F2939   1.384       .  S
C2928      C2929   1.405       .  A
C2928      C2933   1.520       .  S
C2929      C2930   1.403       .  A
C2929      H2934   1.084       .  S
C2930      C2931   1.416       .  A
C2931      C2932   1.409       .  A
C2931      C2935   1.518       .  S
C2932      H2936   1.084       .  S
C2933      F2946   1.385       .  S
C2933      F2947   1.382       .  S
C2933      F2948   1.382       .  S
C2935      F2943   1.385       .  S
C2935      F2944   1.384       .  S
C2935      F2945   1.382       .  S
C2949      C2950   1.404       .  A
C2949      C2954   1.410       .  A
C2949      H2959   1.083       .  S
C2950      C2955   1.493       .  S
C2950      C2951   1.419       .  A
C2951      C2952   1.409       .  A
C2951      C2956   1.519       .  S
C2952      C2953   1.402       .  A
C2952      H2957   1.083       .  S
C2953      C2954   1.417       .  A
C2954      C2958   1.518       .  S
C2955      C2960   1.417       .  A
C2955      C2964   1.399       .  A
C2956      F2972   1.381       .  S
C2956      F2973   1.382       .  S
C2956      F2974   1.385       .  S
C2958      F2969   1.385       .  S
C2958      F2970   1.382       .  S
C2958      F2971   1.384       .  S
C2960      C2961   1.414       .  A
C2960      C2965   1.519       .  S
C2961      C2962   1.409       .  A
C2961      H2966   1.083       .  S
C2962      C2963   1.424       .  A
C2963      C2964   1.407       .  A
C2963      C2967   1.519       .  S
C2964      H2968   1.083       .  S
C2965      F2978   1.384       .  S
C2965      F2979   1.382       .  S
C2965      F2980   1.383       .  S
C2967      F2975   1.383       .  S
C2967      F2976   1.382       .  S
C2967      F2977   1.385       .  S
C2981      C2982   1.401   1_554  A
C2981      C2986   1.412       .  A
C2981      H2991   1.083       .  S
C2982      C2987   1.492       .  S
C2982      C2983   1.415   1_545  A
C2983      C2984   1.410       .  A
C2983      C2988   1.519       .  S
C2984      C2985   1.408   1_566  A
C2984      H2989   1.082       .  S
C2985      C2986   1.427       .  A
C2986      C2990   1.521       .  S
C2987      C2992   1.415   1_556  A
C2987      C2996   1.404       .  A
C2988      F3004   1.382       .  S
C2988      F3005   1.382   1_556  S
C2988      F3006   1.384       .  S
C2990      F3001   1.383       .  S
C2990      F3002   1.385       .  S
C2990      F3003   1.384   1_554  S
C2992      C2993   1.407       .  A
C2992      C2997   1.519   1_545  S
C2993      C2994   1.406   1_554  A
C2993      H2998   1.083   1_545  S
C2994      C2995   1.422       .  A
C2995      C2996   1.413       .  A
C2995      C2999   1.520       .  S
C2996      H3000   1.083       .  S
C2997      F3010   1.384       .  S
C2997      F3011   1.383   1_565  S
C2997      F3012   1.382       .  S
C2999      F3007   1.385       .  S
C2999      F3008   1.383       .  S
C2999      F3009   1.381   1_545  S
C3013      C3014   1.397   1_455  A
C3013      C3018   1.409       .  A
C3013      H3023   1.082       .  S
C3014      C3019   1.488   1_654  S
C3014      C3015   1.413   1_554  A
C3015      C3016   1.410       .  A
C3015      C3020   1.520       .  S
C3016      C3017   1.412   1_556  A
C3016      H3021   1.081       .  S
C3017      C3018   1.433   1_655  A
C3018      C3022   1.523       .  S
C3019      C3024   1.418       .  A
C3019      C3028   1.402   1_456  A
C3020      F3036   1.382       .  S
C3020      F3037   1.382       .  S
C3020      F3038   1.385       .  S
C3022      F3033   1.385       .  S
C3022      F3034   1.382       .  S
C3022      F3035   1.383       .  S
C3024      C3025   1.410       .  A
C3024      C3029   1.519       .  S
C3025      C3026   1.403       .  A
C3025      H3030   1.084       .  S
C3026      C3027   1.415   1_456  A
C3027      C3028   1.407       .  A
C3027      C3031   1.517       .  S
C3028      H3032   1.084       .  S
C3029      F3042   1.384       .  S
C3029      F3043   1.382       .  S
C3029      F3044   1.382       .  S
C3031      F3039   1.385       .  S
C3031      F3040   1.383       .  S
C3031      F3041   1.382       .  S
C3045      C3046   1.398   1_545  A
C3045      C3050   1.410       .  A
C3045      H3055   1.083       .  S
C3046      C3051   1.489       .  S
C3046      C3047   1.413   1_455  A
C3047      C3048   1.409       .  A
C3047      C3052   1.519       .  S
C3048      C3049   1.412   1_655  A
C3048      H3053   1.082       .  S
C3049      C3050   1.431   1_565  A
C3050      C3054   1.522       .  S
C3051      C3056   1.417   1_465  A
C3051      C3060   1.403       .  A
C3052      F3068   1.382       .  S
C3052      F3069   1.382       .  S
C3052      F3070   1.385       .  S
C3054      F3065   1.385       .  S
C3054      F3066   1.384       .  S
C3054      F3067   1.383       .  S
C3056      C3057   1.408       .  A
C3056      C3061   1.519       .  S
C3057      C3058   1.402   1_645  A
C3057      H3062   1.083       .  S
C3058      C3059   1.418       .  A
C3059      C3060   1.409       .  A
C3059      C3063   1.518       .  S
C3060      H3064   1.083       .  S
C3061      F3074   1.384       .  S
C3061      F3075   1.382   1_655  S
C3061      F3076   1.382       .  S
C3063      F3071   1.385       .  S
C3063      F3072   1.383       .  S
C3063      F3073   1.382       .  S
C3077      C3078   1.400   1_455  A
C3077      C3082   1.410   1_554  A
C3077      H3087   1.083   1_554  S
C3078      C3083   1.489       .  S
C3078      C3079   1.413       .  A
C3079      C3080   1.408       .  A
C3079      C3084   1.520       .  S
C3080      C3081   1.412       .  A
C3080      H3085   1.082       .  S
C3081      C3082   1.429   1_654  A
C3082      C3086   1.522       .  S
C3083      C3088   1.418   1_655  A
C3083      C3092   1.402   1_554  A
C3084      F3100   1.382       .  S
C3084      F3101   1.382       .  S
C3084      F3102   1.385       .  S
C3086      F3097   1.385       .  S
C3086      F3098   1.383       .  S
C3086      F3099   1.383       .  S
C3088      C3089   1.410       .  A
C3088      C3093   1.519       .  S
C3089      C3090   1.403   1_455  A
C3089      H3094   1.084       .  S
C3090      C3091   1.416   1_554  A
C3091      C3092   1.408       .  A
C3091      C3095   1.516       .  S
C3092      H3096   1.083       .  S
C3093      F3106   1.384       .  S
C3093      F3107   1.382       .  S
C3093      F3108   1.383       .  S
C3095      F3103   1.382       .  S
C3095      F3104   1.382       .  S
C3095      F3105   1.384       .  S
C3109      C3110   1.401       .  A
C3109      C3114   1.414       .  A
C3109      H3119   1.082       .  S
C3110      C3115   1.495       .  S
C3110      C3111   1.414   1_564  A
C3111      C3112   1.410       .  A
C3111      C3116   1.519       .  S
C3112      C3113   1.410   1_546  A
C3112      H3117   1.082       .  S
C3113      C3114   1.429       .  A
C3114      C3118   1.521       .  S
C3115      C3120   1.419   1_565  A
C3115      C3124   1.403   1_554  A
C3116      F3132   1.383   1_545  S
C3116      F3133   1.382       .  S
C3116      F3134   1.384       .  S
C3118      F3129   1.383       .  S
C3118      F3130   1.385       .  S
C3118      F3131   1.383       .  S
C3120      C3121   1.410       .  A
C3120      C3125   1.518       .  S
C3121      C3122   1.403   1_545  A
C3121      H3126   1.084       .  S
C3122      C3123   1.418   1_554  A
C3123      C3124   1.411       .  A
C3123      C3127   1.518       .  S
C3124      H3128   1.083       .  S
C3125      F3138   1.385       .  S
C3125      F3139   1.382       .  S
C3125      F3140   1.382       .  S
C3127      F3135   1.382       .  S
C3127      F3136   1.383       .  S
C3127      F3137   1.385       .  S
C3141      C3142   1.402   1_445  A
C3141      C3146   1.408       .  A
C3141      H3151   1.083       .  S
C3142      C3147   1.488       .  S
C3142      C3143   1.417       .  A
C3143      C3144   1.409       .  A
C3143      C3148   1.519       .  S
C3144      C3145   1.404   1_655  A
C3144      H3149   1.083       .  S
C3145      C3146   1.417   1_565  A
C3146      C3150   1.517       .  S
C3147      C3152   1.415   1_565  A
C3147      C3156   1.399   1_655  A
C3148      F3164   1.382       .  S
C3148      F3165   1.382       .  S
C3148      F3166   1.384       .  S
C3150      F3161   1.384       .  S
C3150      F3162   1.381   1_545  S
C3150      F3163   1.383       .  S
C3152      C3153   1.409       .  A
C3152      C3157   1.520       .  S
C3153      C3154   1.409   1_545  A
C3153      H3158   1.082       .  S
C3154      C3155   1.427   1_655  A
C3155      C3156   1.408       .  A
C3155      C3159   1.521       .  S
C3156      H3160   1.083       .  S
C3157      F3170   1.384       .  S
C3157      F3171   1.382       .  S
C3157      F3172   1.382       .  S
C3159      F3167   1.383       .  S
C3159      F3168   1.384   1_455  S
C3159      F3169   1.385       .  S
C3173      C3174   1.401   1_455  A
C3173      C3178   1.405       .  A
C3173      H3183   1.083       .  S
C3174      C3179   1.482   1_655  S
C3174      C3175   1.417       .  A
C3175      C3176   1.408       .  A
C3175      C3180   1.519       .  S
C3176      C3177   1.401       .  A
C3176      H3181   1.083       .  S
C3177      C3178   1.415   1_655  A
C3178      C3182   1.518       .  S
C3179      C3184   1.416       .  A
C3179      C3188   1.403   1_455  A
C3180      F3196   1.383       .  S
C3180      F3197   1.382       .  S
C3180      F3198   1.385       .  S
C3182      F3193   1.383       .  S
C3182      F3194   1.384       .  S
C3182      F3195   1.383       .  S
C3184      C3185   1.406       .  A
C3184      C3189   1.520       .  S
C3185      C3186   1.401       .  A
C3185      H3190   1.083       .  S
C3186      C3187   1.414   1_455  A
C3187      C3188   1.408       .  A
C3187      C3191   1.517       .  S
C3188      H3192   1.083       .  S
C3189      F3202   1.384       .  S
C3189      F3203   1.383       .  S
C3189      F3204   1.382       .  S
C3191      F3199   1.383       .  S
C3191      F3200   1.382       .  S
C3191      F3201   1.384       .  S
C3205      C3206   1.401       .  A
C3205      C3210   1.407       .  A
C3205      H3215   1.083       .  S
C3206      C3211   1.486       .  S
C3206      C3207   1.417       .  A
C3207      C3208   1.408       .  A
C3207      C3212   1.519       .  S
C3208      C3209   1.403       .  A
C3208      H3213   1.083       .  S
C3209      C3210   1.419       .  A
C3210      C3214   1.518       .  S
C3211      C3216   1.417       .  A
C3211      C3220   1.403       .  A
C3212      F3228   1.382       .  S
C3212      F3229   1.382       .  S
C3212      F3230   1.384       .  S
C3214      F3225   1.383       .  S
C3214      F3226   1.380       .  S
C3214      F3227   1.385       .  S
C3216      C3217   1.408       .  A
C3216      C3221   1.519       .  S
C3217      C3218   1.402       .  A
C3217      H3222   1.083       .  S
C3218      C3219   1.415       .  A
C3219      C3220   1.407       .  A
C3219      C3223   1.516       .  S
C3220      H3224   1.083       .  S
C3221      F3234   1.385       .  S
C3221      F3235   1.382       .  S
C3221      F3236   1.382       .  S
C3223      F3231   1.385       .  S
C3223      F3232   1.381       .  S
C3223      F3233   1.384       .  S
C3237      C3238   1.404       .  A
C3237      C3242   1.410       .  A
C3237      H3247   1.083       .  S
C3238      C3243   1.493       .  S
C3238      C3239   1.419   1_655  A
C3239      C3240   1.410       .  A
C3239      C3244   1.519       .  S
C3240      C3241   1.403   1_455  A
C3240      H3245   1.084       .  S
C3241      C3242   1.418       .  A
C3242      C3246   1.519       .  S
C3243      C3248   1.418       .  A
C3243      C3252   1.402       .  A
C3244      F3260   1.382       .  S
C3244      F3261   1.383       .  S
C3244      F3262   1.384       .  S
C3246      F3257   1.384       .  S
C3246      F3258   1.384       .  S
C3246      F3259   1.381       .  S
C3248      C3249   1.412       .  A
C3248      C3253   1.519   1_655  S
C3249      C3250   1.406       .  A
C3249      H3254   1.083       .  S
C3250      C3251   1.419       .  A
C3251      C3252   1.409       .  A
C3251      C3255   1.519       .  S
C3252      H3256   1.083       .  S
C3253      F3266   1.385       .  S
C3253      F3267   1.382   1_455  S
C3253      F3268   1.382       .  S
C3255      F3263   1.384       .  S
C3255      F3264   1.382   1_655  S
C3255      F3265   1.385       .  S
C3269      C3270   1.403       .  A
C3269      C3274   1.407       .  A
C3269      H3279   1.083       .  S
C3270      C3275   1.488       .  S
C3270      C3271   1.417       .  A
C3271      C3272   1.408       .  A
C3271      C3276   1.519       .  S
C3272      C3273   1.403       .  A
C3272      H3277   1.083       .  S
C3273      C3274   1.415       .  A
C3274      C3278   1.518       .  S
C3275      C3280   1.417       .  A
C3275      C3284   1.402       .  A
C3276      F3292   1.382       .  S
C3276      F3293   1.382       .  S
C3276      F3294   1.384       .  S
C3278      F3289   1.383       .  S
C3278      F3290   1.384       .  S
C3278      F3291   1.382       .  S
C3280      C3281   1.407       .  A
C3280      C3285   1.520       .  S
C3281      C3282   1.405       .  A
C3281      H3286   1.084       .  S
C3282      C3283   1.419       .  A
C3283      C3284   1.409       .  A
C3283      C3287   1.519       .  S
C3284      H3288   1.084       .  S
C3285      F3298   1.385       .  S
C3285      F3299   1.382       .  S
C3285      F3300   1.382       .  S
C3287      F3295   1.385       .  S
C3287      F3296   1.383       .  S
C3287      F3297   1.382       .  S
C3301      C3302   1.401   1_655  A
C3301      C3306   1.405       .  A
C3301      H3311   1.084       .  S
C3302      C3307   1.483       .  S
C3302      C3303   1.416       .  A
C3303      C3304   1.406       .  A
C3303      C3308   1.520       .  S
C3304      C3305   1.405       .  A
C3304      H3309   1.084       .  S
C3305      C3306   1.419   1_455  A
C3306      C3310   1.519       .  S
C3307      C3312   1.417       .  A
C3307      C3316   1.402       .  A
C3308      F3324   1.382       .  S
C3308      F3325   1.383       .  S
C3308      F3326   1.385       .  S
C3310      F3321   1.384       .  S
C3310      F3322   1.383       .  S
C3310      F3323   1.383       .  S
C3312      C3313   1.405       .  A
C3312      C3317   1.520   1_455  S
C3313      C3314   1.403       .  A
C3313      H3318   1.083       .  S
C3314      C3315   1.417       .  A
C3315      C3316   1.406       .  A
C3315      C3319   1.519       .  S
C3316      H3320   1.083       .  S
C3317      F3330   1.385       .  S
C3317      F3331   1.382       .  S
C3317      F3332   1.383   1_655  S
C3319      F3327   1.385       .  S
C3319      F3328   1.381       .  S
C3319      F3329   1.384       .  S
C3333      C3334   1.401   1_455  A
C3333      C3338   1.407       .  A
C3333      H3343   1.083       .  S
C3334      C3339   1.483       .  S
C3334      C3335   1.416       .  A
C3335      C3336   1.408       .  A
C3335      C3340   1.520       .  S
C3336      C3337   1.403       .  A
C3336      H3341   1.084       .  S
C3337      C3338   1.417   1_655  A
C3338      C3342   1.518       .  S
C3339      C3344   1.416       .  A
C3339      C3348   1.402   1_655  A
C3340      F3356   1.383       .  S
C3340      F3357   1.382       .  S
C3340      F3358   1.384       .  S
C3342      F3353   1.385       .  S
C3342      F3354   1.382       .  S
C3342      F3355   1.383       .  S
C3344      C3345   1.406       .  A
C3344      C3349   1.519       .  S
C3345      C3346   1.402       .  A
C3345      H3350   1.084       .  S
C3346      C3347   1.418   1_655  A
C3347      C3348   1.407       .  A
C3347      C3351   1.520       .  S
C3348      H3352   1.084       .  S
C3349      F3362   1.384       .  S
C3349      F3363   1.382   1_655  S
C3349      F3364   1.382       .  S
C3351      F3359   1.384       .  S
C3351      F3360   1.383       .  S
C3351      F3361   1.382   1_455  S
C3365      C3366   1.403       .  A
C3365      C3370   1.407       .  A
C3365      H3375   1.083       .  S
C3366      C3371   1.488       .  S
C3366      C3367   1.418       .  A
C3367      C3368   1.408       .  A
C3367      C3372   1.519       .  S
C3368      C3369   1.402       .  A
C3368      H3373   1.083       .  S
C3369      C3370   1.415       .  A
C3370      C3374   1.518       .  S
C3371      C3376   1.412       .  A
C3371      C3380   1.398       .  A
C3372      F3388   1.382       .  S
C3372      F3389   1.382       .  S
C3372      F3390   1.385       .  S
C3374      F3385   1.382       .  S
C3374      F3386   1.384       .  S
C3374      F3387   1.383       .  S
C3376      C3377   1.409       .  A
C3376      C3381   1.520       .  S
C3377      C3378   1.414       .  A
C3377      H3382   1.082       .  S
C3378      C3379   1.430       .  A
C3379      C3380   1.409       .  A
C3379      C3383   1.521       .  S
C3380      H3384   1.083       .  S
C3381      F3394   1.384       .  S
C3381      F3395   1.382       .  S
C3381      F3396   1.382       .  S
C3383      F3391   1.385       .  S
C3383      F3392   1.383       .  S
C3383      F3393   1.382       .  S
C3397      C3398   1.399   1_565  A
C3397      C3402   1.410       .  A
C3397      H3407   1.083       .  S
C3398      C3403   1.489       .  S
C3398      C3399   1.414       .  A
C3399      C3400   1.409       .  A
C3399      C3404   1.520       .  S
C3400      C3401   1.411       .  A
C3400      H3405   1.082       .  S
C3401      C3402   1.428   1_545  A
C3402      C3406   1.520       .  S
C3403      C3408   1.416       .  A
C3403      C3412   1.400   1_545  A
C3404      F3420   1.382       .  S
C3404      F3421   1.382       .  S
C3404      F3422   1.384       .  S
C3406      F3417   1.383       .  S
C3406      F3418   1.385       .  S
C3406      F3419   1.383       .  S
C3408      C3409   1.410       .  A
C3408      C3413   1.519       .  S
C3409      C3410   1.405       .  A
C3409      H3414   1.083       .  S
C3410      C3411   1.422   1_545  A
C3411      C3412   1.408       .  A
C3411      C3415   1.519       .  S
C3412      H3416   1.083       .  S
C3413      F3426   1.384       .  S
C3413      F3427   1.382       .  S
C3413      F3428   1.382       .  S
C3415      F3423   1.383       .  S
C3415      F3424   1.381   1_565  S
C3415      F3425   1.385       .  S
C3429      C3430   1.404       .  A
C3429      C3434   1.410       .  A
C3429      H3439   1.083       .  S
C3430      C3435   1.489       .  S
C3430      C3431   1.417       .  A
C3431      C3432   1.407       .  A
C3431      C3436   1.520   1_565  S
C3432      C3433   1.403       .  A
C3432      H3437   1.084   1_565  S
C3433      C3434   1.416       .  A
C3434      C3438   1.517       .  S
C3435      C3440   1.415       .  A
C3435      C3444   1.400   1_565  A
C3436      F3452   1.382       .  S
C3436      F3453   1.382   1_545  S
C3436      F3454   1.384       .  S
C3438      F3449   1.383       .  S
C3438      F3450   1.385       .  S
C3438      F3451   1.381       .  S
C3440      C3441   1.409       .  A
C3440      C3445   1.519       .  S
C3441      C3442   1.409       .  A
C3441      H3446   1.082       .  S
C3442      C3443   1.427   1_565  A
C3443      C3444   1.409       .  A
C3443      C3447   1.522       .  S
C3444      H3448   1.083       .  S
C3445      F3458   1.385       .  S
C3445      F3459   1.382       .  S
C3445      F3460   1.382       .  S
C3447      F3455   1.385       .  S
C3447      F3456   1.383       .  S
C3447      F3457   1.384       .  S
C3461      C3462   1.399       .  A
C3461      C3466   1.409       .  A
C3461      H3471   1.083       .  S
C3462      C3467   1.482       .  S
C3462      C3463   1.410       .  A
C3463      C3464   1.404       .  A
C3463      C3468   1.521       .  S
C3464      C3465   1.413       .  A
C3464      H3469   1.081       .  S
C3465      C3466   1.429       .  A
C3466      C3470   1.521       .  S
C3467      C3472   1.417       .  A
C3467      C3476   1.402       .  A
C3468      F3484   1.382       .  S
C3468      F3485   1.382       .  S
C3468      F3486   1.385       .  S
C3470      F3481   1.383       .  S
C3470      F3482   1.385       .  S
C3470      F3483   1.382       .  S
C3472      C3473   1.407       .  A
C3472      C3477   1.520       .  S
C3473      C3474   1.401       .  A
C3473      H3478   1.083       .  S
C3474      C3475   1.414       .  A
C3475      C3476   1.405       .  A
C3475      C3479   1.518       .  S
C3476      H3480   1.083       .  S
C3477      F3490   1.385       .  S
C3477      F3491   1.382       .  S
C3477      F3492   1.382       .  S
C3479      F3487   1.383       .  S
C3479      F3488   1.383       .  S
C3479      F3489   1.384       .  S
C3493      C3494   1.402   1_545  A
C3493      C3498   1.405       .  A
C3493      H3503   1.083       .  S
C3494      C3499   1.485       .  S
C3494      C3495   1.417       .  A
C3495      C3496   1.408       .  A
C3495      C3500   1.519       .  S
C3496      C3497   1.403       .  A
C3496      H3501   1.083       .  S
C3497      C3498   1.415   1_565  A
C3498      C3502   1.518       .  S
C3499      C3504   1.412       .  A
C3499      C3508   1.399   1_565  A
C3500      F3516   1.382       .  S
C3500      F3517   1.382       .  S
C3500      F3518   1.385       .  S
C3502      F3513   1.384       .  S
C3502      F3514   1.383       .  S
C3502      F3515   1.382       .  S
C3504      C3505   1.406       .  A
C3504      C3509   1.520       .  S
C3505      C3506   1.410   1_565  A
C3505      H3510   1.081       .  S
C3506      C3507   1.431       .  A
C3507      C3508   1.410       .  A
C3507      C3511   1.523       .  S
C3508      H3512   1.083       .  S
C3509      F3522   1.384       .  S
C3509      F3523   1.382       .  S
C3509      F3524   1.382       .  S
C3511      F3519   1.384       .  S
C3511      F3520   1.383       .  S
C3511      F3521   1.385       .  S
C3525      C3526   1.402       .  A
C3525      C3530   1.405       .  A
C3525      H3535   1.083       .  S
C3526      C3531   1.481       .  S
C3526      C3527   1.417   1_565  A
C3527      C3528   1.406       .  A
C3527      C3532   1.520       .  S
C3528      C3529   1.401       .  A
C3528      H3533   1.083       .  S
C3529      C3530   1.415   1_545  A
C3530      C3534   1.518       .  S
C3531      C3536   1.412       .  A
C3531      C3540   1.399   1_565  A
C3532      F3548   1.382       .  S
C3532      F3549   1.382       .  S
C3532      F3550   1.385       .  S
C3534      F3545   1.384       .  S
C3534      F3546   1.382       .  S
C3534      F3547   1.383       .  S
C3536      C3537   1.407       .  A
C3536      C3541   1.520       .  S
C3537      C3538   1.409   1_565  A
C3537      H3542   1.083       .  S
C3538      C3539   1.425       .  A
C3539      C3540   1.406       .  A
C3539      C3543   1.520       .  S
C3540      H3544   1.083       .  S
C3541      F3554   1.384       .  S
C3541      F3555   1.382       .  S
C3541      F3556   1.382       .  S
C3543      F3551   1.385       .  S
C3543      F3552   1.383       .  S
C3543      F3553   1.383       .  S
C3557      C3558   1.402   1_554  A
C3557      C3562   1.409       .  A
C3557      H3567   1.084       .  S
C3558      C3563   1.494       .  S
C3558      C3559   1.417       .  A
C3559      C3560   1.410       .  A
C3559      C3564   1.519       .  S
C3560      C3561   1.406       .  A
C3560      H3565   1.084       .  S
C3561      C3562   1.422   1_556  A
C3562      C3566   1.521       .  S
C3563      C3568   1.418       .  A
C3563      C3572   1.403       .  A
C3564      F3580   1.382       .  S
C3564      F3581   1.383       .  S
C3564      F3582   1.385       .  S
C3566      F3577   1.383       .  S
C3566      F3578   1.385       .  S
C3566      F3579   1.380       .  S
C3568      C3569   1.409       .  A
C3568      C3573   1.520       .  S
C3569      C3570   1.405       .  A
C3569      H3574   1.083       .  S
C3570      C3571   1.423       .  A
C3571      C3572   1.411       .  A
C3571      C3575   1.520       .  S
C3572      H3576   1.083       .  S
C3573      F3586   1.385       .  S
C3573      F3587   1.381   1_556  S
C3573      F3588   1.383       .  S
C3575      F3583   1.385       .  S
C3575      F3584   1.383   1_556  S
C3575      F3585   1.383       .  S
C3589      C3590   1.402       .  A
C3589      C3594   1.407       .  A
C3589      H3599   1.083       .  S
C3590      C3595   1.484       .  S
C3590      C3591   1.417   1_556  A
C3591      C3592   1.408       .  A
C3591      C3596   1.519       .  S
C3592      C3593   1.403   1_554  A
C3592      H3597   1.083       .  S
C3593      C3594   1.415       .  A
C3594      C3598   1.517       .  S
C3595      C3600   1.418       .  A
C3595      C3604   1.402   1_556  A
C3596      F3612   1.382       .  S
C3596      F3613   1.382       .  S
C3596      F3614   1.384       .  S
C3598      F3609   1.383       .  S
C3598      F3610   1.385       .  S
C3598      F3611   1.382       .  S
C3600      C3601   1.407       .  A
C3600      C3605   1.519       .  S
C3601      C3602   1.401       .  A
C3601      H3606   1.084       .  S
C3602      C3603   1.414   1_556  A
C3603      C3604   1.405       .  A
C3603      C3607   1.519       .  S
C3604      H3608   1.084       .  S
C3605      F3618   1.385       .  S
C3605      F3619   1.382       .  S
C3605      F3620   1.382       .  S
C3607      F3615   1.383       .  S
C3607      F3616   1.382       .  S
C3607      F3617   1.384       .  S
C3621      C3622   1.401       .  A
C3621      C3626   1.407       .  A
C3621      H3631   1.084       .  S
C3622      C3627   1.486       .  S
C3622      C3623   1.417       .  A
C3623      C3624   1.410       .  A
C3623      C3628   1.520       .  S
C3624      C3625   1.404       .  A
C3624      H3629   1.083       .  S
C3625      C3626   1.418       .  A
C3626      C3630   1.519       .  S
C3627      C3632   1.417       .  A
C3627      C3636   1.402       .  A
C3628      F3644   1.382       .  S
C3628      F3645   1.381       .  S
C3628      F3646   1.384       .  S
C3630      F3641   1.384       .  S
C3630      F3642   1.382       .  S
C3630      F3643   1.384       .  S
C3632      C3633   1.410       .  A
C3632      C3637   1.519       .  S
C3633      C3634   1.404       .  A
C3633      H3638   1.083       .  S
C3634      C3635   1.416       .  A
C3635      C3636   1.407       .  A
C3635      C3639   1.519       .  S
C3636      H3640   1.083       .  S
C3637      F3650   1.384       .  S
C3637      F3651   1.382       .  S
C3637      F3652   1.381       .  S
C3639      F3647   1.383       .  S
C3639      F3648   1.381       .  S
C3639      F3649   1.384       .  S
C3653      C3654   1.403       .  A
C3653      C3658   1.409       .  A
C3653      H3663   1.083       .  S
C3654      C3659   1.490       .  S
C3654      C3655   1.417       .  A
C3655      C3656   1.408       .  A
C3655      C3660   1.519       .  S
C3656      C3657   1.403       .  A
C3656      H3661   1.082       .  S
C3657      C3658   1.418       .  A
C3658      C3662   1.519       .  S
C3659      C3664   1.416       .  A
C3659      C3668   1.402       .  A
C3660      F3676   1.382       .  S
C3660      F3677   1.382       .  S
C3660      F3678   1.385       .  S
C3662      F3673   1.385       .  S
C3662      F3674   1.382       .  S
C3662      F3675   1.383       .  S
C3664      C3665   1.408       .  A
C3664      C3669   1.519       .  S
C3665      C3666   1.404       .  A
C3665      H3670   1.083       .  S
C3666      C3667   1.422       .  A
C3667      C3668   1.410       .  A
C3667      C3671   1.520       .  S
C3668      H3672   1.083       .  S
C3669      F3682   1.384       .  S
C3669      F3683   1.382       .  S
C3669      F3684   1.382       .  S
C3671      F3679   1.384       .  S
C3671      F3680   1.382       .  S
C3671      F3681   1.385       .  S
C3685      C3686   1.401   1_554  A
C3685      C3690   1.406       .  A
C3685      H3695   1.084       .  S
C3686      C3691   1.482       .  S
C3686      C3687   1.415       .  A
C3687      C3688   1.404       .  A
C3687      C3692   1.519       .  S
C3688      C3689   1.403       .  A
C3688      H3693   1.084       .  S
C3689      C3690   1.421   1_556  A
C3690      C3694   1.521       .  S
C3691      C3696   1.415   1_556  A
C3691      C3700   1.401       .  A
C3692      F3708   1.382       .  S
C3692      F3709   1.383       .  S
C3692      F3710   1.385       .  S
C3694      F3705   1.385       .  S
C3694      F3706   1.384       .  S
C3694      F3707   1.383       .  S
C3696      C3697   1.405       .  A
C3696      C3701   1.520       .  S
C3697      C3698   1.404       .  A
C3697      H3702   1.084       .  S
C3698      C3699   1.419   1_554  A
C3699      C3700   1.406       .  A
C3699      C3703   1.520       .  S
C3700      H3704   1.083       .  S
C3701      F3714   1.385       .  S
C3701      F3715   1.382       .  S
C3701      F3716   1.383   1_554  S
C3703      F3711   1.385       .  S
C3703      F3712   1.381   1_556  S
C3703      F3713   1.383       .  S
C3717      C3718   1.403       .  A
C3717      C3722   1.408       .  A
C3717      H3727   1.084       .  S
C3718      C3723   1.489       .  S
C3718      C3719   1.418       .  A
C3719      C3720   1.407       .  A
C3719      C3724   1.520       .  S
C3720      C3721   1.403       .  A
C3720      H3725   1.084       .  S
C3721      C3722   1.417       .  A
C3722      C3726   1.518       .  S
C3723      C3728   1.418       .  A
C3723      C3732   1.402   1_556  A
C3724      F3740   1.382   1_556  S
C3724      F3741   1.382       .  S
C3724      F3742   1.385       .  S
C3726      F3737   1.382       .  S
C3726      F3738   1.385   1_556  S
C3726      F3739   1.383   1_556  S
C3728      C3729   1.409       .  A
C3728      C3733   1.519       .  S
C3729      C3730   1.403       .  A
C3729      H3734   1.084       .  S
C3730      C3731   1.416   1_556  A
C3731      C3732   1.407       .  A
C3731      C3735   1.519       .  S
C3732      H3736   1.083       .  S
C3733      F3746   1.385       .  S
C3733      F3747   1.382       .  S
C3733      F3748   1.383       .  S
C3735      F3743   1.381       .  S
C3735      F3744   1.383       .  S
C3735      F3745   1.384       .  S
