geometry optimzed in LAMMPS
_audit_creation_date              2020-11-30 
_audit_creation_method            'lammps2cif' 
_symmetry_space_group_name_H-M    'P1' 
_symmetry_Int_Tables_number       1 
_symmetry_cell_setting            triclinic 
loop_ 
_symmetry_equiv_pos_as_xyz 
  x,y,z 
_cell_length_a                    41.43402651 
_cell_length_b                    40.98491053718463 
_cell_length_c                    38.18364838060784 
_cell_angle_alpha                 90.09906976593363 
_cell_angle_beta                  90.1479550480484 
_cell_angle_gamma                 119.97895697085934 
loop_ 
_atom_site_label 
_atom_site_type_symbol 
_atom_site_fract_x 
_atom_site_fract_y 
_atom_site_fract_z 
_atom_site_charge 
Fe1        Fe  0.21548238  0.37713661  0.00872003     1.65800
Fe2        Fe  0.11685272  0.32705051  0.50355550     1.73200
Fe3        Fe  0.16397973  0.28014974  0.48538874     1.54400
O4          O  0.20555956  0.30449342  0.44796817    -0.79500
O5          O  0.09577112  0.28319175  0.03134795    -0.77800
O6          O  0.24037989  0.36320212  0.46721795    -0.82000
O7          O  0.23455472  0.35618867  0.04772814    -0.76800
O8          O  0.12450898  0.26655574  0.44581926    -0.78600
O9          O  0.13220165  0.36587703  0.03434332    -0.81300
C10         C  0.23171566  0.32429008  0.05292028     0.99400
C11         C  0.23522359  0.33624905  0.44720889     1.06900
O12         O  0.16423740  0.32716999  0.49808329    -1.10300
O13         O  0.13601402  0.37571880  0.47558249    -0.72700
O14         O  0.19775607  0.40289117  0.46858534    -0.76200
O15         O  0.20944169  0.29507212  0.03555795    -0.76900
C16         C  0.16643207  0.40079504  0.46252322     0.98300
O17         O  0.19277018  0.39525082  0.04649362    -0.74900
O18         O  0.09462542  0.29784650  0.45765400    -0.80100
C19         C  0.10146791  0.25647059  0.04042839     1.01000
C20         C  0.09959309  0.27521840  0.43896358     1.06900
O21         O  0.12856490  0.25318544  0.02912740    -0.75700
C22         C  0.16047099  0.39035716  0.05122168     1.05200
Fe23       Fe  0.37031260  0.17579215  0.49564674     1.65800
Fe24       Fe  0.28004940  0.12654990  0.00772253     1.73200
Fe25       Fe  0.34379849  0.22100879  0.00702611     1.54400
O26         O  0.38464391  0.23690640  0.04566210    -0.79500
O27         O  0.24475135  0.13860742  0.47614285    -0.77800
O28         O  0.40079353  0.19264325  0.04934972    -0.82000
O29         O  0.38374858  0.20974489  0.45245168    -0.76800
O30         O  0.30594961  0.21436466  0.04597788    -0.78600
O31         O  0.28739187  0.10253933  0.46186219    -0.81300
C32         C  0.38172808  0.23919063  0.44752163     0.99400
C33         C  0.40343613  0.22323837  0.05938476     1.06900
O34         O  0.33233455  0.16811396  0.00804181    -1.10300
O35         O  0.28775266  0.09909369  0.04994343    -0.72700
O36         O  0.34733122  0.11509457  0.04488353    -0.76200
O37         O  0.36014598  0.24654710  0.46514886    -0.76900
C38         C  0.31573016  0.09626800  0.05913547     0.98300
O39         O  0.34939372  0.12962759  0.46211107    -0.74900
O40         O  0.26258022  0.15371855  0.04269665    -0.80100
C41         C  0.25025789  0.16699728  0.45806036     1.01000
C42         C  0.27466299  0.18682817  0.05490974     1.06900
O43         O  0.27948717  0.19900907  0.46105306    -0.75700
C44         C  0.31735612  0.10530843  0.45057052     1.05200
C45         C  0.48661161  0.50954045  0.13994485     0.04500
C46         C  0.48353085  0.47387004  0.13736812     0.04500
C47         C  0.01043879  0.47061007  0.11147938     0.04500
C48         C  0.04391674  0.50533745  0.10865917     0.04500
C49         C  0.02551326  0.03319058  0.12034642     0.04500
C50         C  0.99024754  0.03022764  0.12192681     0.04500
C51         C  0.32774658  0.48482271  0.14832401     0.82400
N52         N  0.30995934  0.01225070  0.13603276    -0.75900
C53         C  0.34037968  0.03569115  0.11685279     0.84900
N54         N  0.37041090  0.03078253  0.11645746    -0.75800
C55         C  0.37030172  0.00262082  0.13489800     0.85000
N56         N  0.36044016  0.48504195  0.14967230    -0.77500
C57         C  0.18703477  0.01596480  0.13263199     0.82400
N58         N  0.18243157  0.98390335  0.11725033    -0.75900
C59         C  0.17943895  0.47830969  0.10365250     0.84900
N60         N  0.14658827  0.47759728  0.09864911    -0.75800
C61         C  0.12527492  0.99825316  0.11771393     0.85000
N62         N  0.15818532  0.02291404  0.13291681    -0.77500
C63         C  0.18561633  0.16810253  0.10519686     0.82400
N64         N  0.18863359  0.19958971  0.12132951    -0.75900
C65         C  0.15730027  0.19776656  0.13574936     0.84900
N66         N  0.12422036  0.16515539  0.13374637    -0.75800
C67         C  0.12153871  0.13450434  0.11790958     0.85000
N68         N  0.15206684  0.13600281  0.10400426    -0.77500
C69         C  0.47424134  0.17171493  0.14737601     0.82400
N70         N  0.47146135  0.13717873  0.14600975    -0.75900
C71         C  0.49633427  0.13217730  0.12713144     0.84900
N72         N  0.01539259  0.15916063  0.09778550    -0.75800
C73         C  0.01610300  0.19281690  0.09721037     0.85000
N74         N  0.50190527  0.20098990  0.12970996    -0.77500
C75         C  0.31840511  0.34853527  0.10905702     0.82400
N76         N  0.35292062  0.37938514  0.11229951    -0.75900
C77         C  0.38023679  0.37752608  0.13039726     0.84900
N78         N  0.37290251  0.34442915  0.14549815    -0.75800
C79         C  0.33831465  0.31332308  0.14250290     0.85000
N80         N  0.31126614  0.31565505  0.12432618    -0.77500
C81         C  0.03235137  0.33116471  0.13524764     0.82400
N82         N  0.00367865  0.30048016  0.11975271    -0.75900
C83         C  0.46822396  0.30463570  0.11888679     0.84900
N84         N  0.47390525  0.34005923  0.11911715    -0.75800
C85         C  0.00712601  0.36836246  0.11534810     0.85000
N86         N  0.03395590  0.36512197  0.13291532    -0.77500
Fe87       Fe  0.31684865  0.10778416  0.24085960     1.65800
Fe88       Fe  0.28037602  0.16534304  0.23385338     1.73200
Fe89       Fe  0.37289344  0.20227734  0.25203478     1.54400
O90         O  0.38395328  0.17751092  0.29394242    -0.79500
O91         O  0.30960704  0.21441421  0.20460969    -0.77800
O92         O  0.35729153  0.11750144  0.27820681    -0.82000
O93         O  0.35585868  0.12293011  0.20240530    -0.76800
O94         O  0.35132853  0.22547447  0.28758052    -0.78600
O95         O  0.26636670  0.13499666  0.18790290    -0.81300
C96         C  0.38780249  0.15207896  0.19954139     0.99400
C97         C  0.37992831  0.14492598  0.29711158     1.06900
O98         O  0.32361145  0.15877288  0.24216911    -1.10300
O99         O  0.24505543  0.11753966  0.26250719    -0.72700
O100        O  0.27792553  0.09065946  0.27962357    -0.76200
O101        O  0.39833196  0.18226514  0.21737282    -0.76900
C102        C  0.24925626  0.09425153  0.28119360     0.98300
O103        O  0.27491020  0.08758019  0.20301884    -0.74900
O104        O  0.28968019  0.19599622  0.27903330    -0.80100
C105        C  0.34370868  0.23747385  0.19822850     1.01000
C106        C  0.31877866  0.21933412  0.29546503     1.06900
O107        O  0.36993499  0.23427442  0.21176470    -0.75700
C108        C  0.26011543  0.10170224  0.18363088     1.05200
Fe109      Fe  0.13215127  0.30091014  0.24328812     1.65800
Fe110      Fe  0.22730828  0.35223782  0.24209224     1.73200
Fe111      Fe  0.17698290  0.39700406  0.25294826     1.54400
O112        O  0.13403025  0.38045170  0.21707386    -0.79500
O113        O  0.24965705  0.38792297  0.28368361    -0.77800
O114        O  0.11036838  0.31947919  0.20387249    -0.82000
O115        O  0.10384997  0.31412414  0.28154094    -0.76800
O116        O  0.21373744  0.42498001  0.21287264    -0.78600
O117        O  0.21236087  0.30854882  0.27695993    -0.81300
C118        C  0.11107416  0.34342106  0.29921192     0.99400
C119        C  0.11222613  0.35122067  0.19948313     1.06900
O120        O  0.17880536  0.35006872  0.24596568    -1.10300
O121        O  0.21316296  0.31655382  0.19978025    -0.72700
O122        O  0.15214901  0.27854396  0.20493104    -0.76200
O123        O  0.13988162  0.37507965  0.29376604    -0.76900
C124        C  0.18336261  0.28738128  0.19083311     0.98300
O125        O  0.15037260  0.27908147  0.28265153    -0.74900
O126        O  0.24744156  0.39655958  0.20751206    -0.80100
C127        C  0.24571462  0.41335623  0.29823843     1.01000
C128        C  0.24004101  0.42215147  0.19918020     1.06900
O129        O  0.22017452  0.42041038  0.28968600    -0.75700
C130        C  0.18229525  0.28402295  0.29119715     1.05200
C131        C  0.45918529  0.99519823  0.37416379     0.04500
C132        C  0.46641762  0.46157077  0.38017178     0.04500
C133        C  0.00751692  0.45930642  0.37943083     0.04500
C134        C  0.04134923  0.49395552  0.37637786     0.04500
C135        C  0.03513962  0.03461798  0.36239124     0.04500
C136        C  0.00191570  0.03561258  0.35709795     0.04500
C137        C  0.19165211  0.02085711  0.35011025     0.82800
N138        N  0.19690157  0.99783908  0.37183141    -0.75900
C139        C  0.18466923  0.48205179  0.40077060     0.84900
N140        N  0.15042998  0.47901016  0.39912198    -0.75800
C141        C  0.13148653  0.99786154  0.37287157     0.85000
N142        N  0.15887634  0.02081944  0.35066646    -0.77500
C143        C  0.31387333  0.49225879  0.35934340     0.82400
N144        N  0.30540412  0.01298033  0.38422253    -0.75900
C145        C  0.33872559  0.03930442  0.39805756     0.84900
N146        N  0.36839989  0.03392586  0.39643261    -0.75800
C147        C  0.36495491  0.00242466  0.38143468     0.85000
N148        N  0.34248349  0.48487070  0.35963532    -0.77500
C149        C  0.46243171  0.16377740  0.35728212     0.82400
N150        N  0.49033256  0.19467519  0.37338007    -0.75900
C151        C  0.04038009  0.20034888  0.37127561     0.84900
N152        N  0.03647500  0.16568458  0.36837221    -0.75800
C153        C  0.49240908  0.12945703  0.37204175     0.85000
N154        N  0.46352309  0.13106884  0.35672237    -0.77500
C155        C  0.18828616  0.18083489  0.39115230     0.82400
N156        N  0.15852911  0.14530787  0.38972330    -0.75900
C157        C  0.12843702  0.13754291  0.36992276     0.84900
N158        N  0.12764614  0.16522617  0.35151257    -0.75800
C159        C  0.15712117  0.20073041  0.35226781     0.85000
N160        N  0.18769993  0.20866709  0.37208786    -0.77500
C161        C  0.02517341  0.31744147  0.35800727     0.82400
N162        N  0.99702171  0.28757129  0.37515695    -0.75900
C163        C  0.46523640  0.29631234  0.38714988     0.84900
N164        N  0.46819642  0.33084973  0.38763406    -0.75800
C165        C  0.00275707  0.35662272  0.37924416     0.85000
N166        N  0.02772258  0.35181073  0.36032043    -0.77500
C167        C  0.30469416  0.32142066  0.39118223     0.82400
N168        N  0.30621980  0.29299188  0.37383536    -0.75900
C169        C  0.33921029  0.29894193  0.36019469     0.84900
N170        N  0.37018271  0.33301572  0.36394537    -0.75800
C171        C  0.36889392  0.36130252  0.38072702     0.85000
N172        N  0.33627563  0.35566226  0.39433797    -0.77500
C173        C  0.00258639  0.07124870  0.35388105    -0.11000
C174        C  0.49323901  0.09457663  0.37227205    -0.12600
C175        C  0.09743335  0.10010177  0.36813150    -0.11000
C176        C  0.06996482  0.06960291  0.36565188    -0.12600
C177        C  0.43145839  0.42636108  0.38165104    -0.11000
C178        C  0.40215113  0.39729775  0.38257067    -0.12600
C179        C  0.39683477  0.99786297  0.37864631    -0.11000
C180        C  0.42476074  0.99595650  0.37627668    -0.12600
C181        C  0.07716750  0.49524855  0.37636309    -0.11000
C182        C  0.09687261  0.99782715  0.37269455    -0.12600
C183        C  0.00757278  0.42373426  0.38075752    -0.11000
C184        C  0.00567769  0.39325067  0.38073618    -0.12600
C185        C  0.15503891  0.22914972  0.33033491    -0.14200
C186        C  0.18521626  0.25990327  0.31830044    -0.29400
H187        H  0.12761062  0.22231282  0.32080789     0.14800
H188        H  0.21281232  0.26589017  0.32644053     0.15400
C189        C  0.08484353  0.34287571  0.32612297    -0.14200
C190        C  0.05212124  0.31269310  0.33560018    -0.29400
H191        H  0.09224269  0.37013218  0.33738066     0.14800
H192        H  0.04449222  0.28482241  0.32589117     0.15400
C193        C  0.27379366  0.43558657  0.32511039    -0.14200
C194        C  0.28009343  0.46875569  0.33800863    -0.29400
H195        H  0.29262806  0.42540282  0.33225204     0.14800
H196        H  0.26147496  0.47940422  0.33165184     0.15400
C197        C  0.43291556  0.16744895  0.33869444    -0.14200
C198        C  0.40394103  0.13870468  0.32200550    -0.29400
H199        H  0.43672655  0.19561735  0.33678409     0.14800
H200        H  0.40008328  0.11051103  0.32375393     0.15400
C201        C  0.21916502  0.07029856  0.30533406    -0.14200
C202        C  0.22162815  0.04532105  0.32617080    -0.29400
H203        H  0.19450469  0.07321779  0.30585827     0.14800
H204        H  0.24645575  0.04267795  0.32583882     0.15400
C205        C  0.34268512  0.27060409  0.33912604    -0.14200
C206        C  0.31371264  0.24115408  0.32373887    -0.29400
H207        H  0.37076857  0.27702422  0.33255791     0.14800
H208        H  0.28560994  0.23535939  0.32925773     0.15400
C209        C  0.06004530  0.32657701  0.15619506    -0.14200
C210        C  0.08771197  0.35546027  0.17383407    -0.29400
H211        H  0.05621093  0.29845964  0.15879448     0.14800
H212        H  0.09115959  0.38343130  0.17124096     0.15400
C213        C  0.35407414  0.27074370  0.17563733    -0.14200
C214        C  0.32862096  0.27749813  0.16050313    -0.29400
H215        H  0.38350173  0.29139796  0.17318997     0.14800
H216        H  0.29925203  0.25645598  0.16226542     0.15400
C217        C  0.41382688  0.14897218  0.17553326    -0.14200
C218        C  0.44777664  0.17772680  0.16817523    -0.29400
H219        H  0.40509546  0.12127933  0.16450934     0.14800
H220        H  0.45627419  0.20597607  0.17746226     0.15400
C221        C  0.15681589  0.22858507  0.15599871    -0.14200
C222        C  0.18631126  0.26201827  0.16441068    -0.29400
H223        H  0.12989437  0.22180713  0.16672173     0.14800
H224        H  0.21361919  0.26944844  0.15427988     0.15400
C225        C  0.22210623  0.04175264  0.15116310    -0.14200
C226        C  0.23201448  0.07796212  0.15716232    -0.29400
H227        H  0.23856829  0.03019760  0.16192963     0.14800
H228        H  0.21614363  0.08948573  0.14495432     0.15400
C229        C  0.29482490  0.45131019  0.16179624    -0.14200
C230        C  0.26486544  0.45161860  0.17442502    -0.29400
H231        H  0.29815347  0.42698335  0.16642802     0.14800
H232        H  0.26157834  0.47608332  0.17067569     0.15400
C233        C  0.05865916  0.06986197  0.11818841    -0.11000
C234        C  0.08690807  0.09985586  0.11748788    -0.12600
C235        C  0.49521420  0.06753188  0.12257670    -0.11000
C236        C  0.49422140  0.09626820  0.12552494    -0.12600
C237        C  0.09410675  0.00399669  0.11939495    -0.11000
C238        C  0.07871377  0.50559860  0.10599565    -0.12600
C239        C  0.01051787  0.43489949  0.11203449    -0.11000
C240        C  0.00913301  0.40462401  0.11318702    -0.12600
C241        C  0.44689855  0.43949579  0.13567966    -0.11000
C242        C  0.41672988  0.41090489  0.13370444    -0.12600
C243        C  0.42599618  0.51488986  0.14041384    -0.11000
C244        C  0.45358424  0.51250512  0.14054343    -0.12600
C245        C  0.31406682  0.07732839  0.42444503    -0.14200
C246        C  0.34304628  0.07264956  0.41678187    -0.29400
H247        H  0.28644233  0.05745948  0.41453252     0.14800
H248        H  0.37044382  0.09200732  0.42748018     0.15400
C249        C  0.34165292  0.06578992  0.09520134    -0.14200
C250        C  0.31188188  0.06912625  0.08656827    -0.29400
H251        H  0.36860910  0.08458951  0.08359379     0.14800
H252        H  0.28463112  0.05029807  0.09758270     0.15400
C253        C  0.22058209  0.18892127  0.41386717    -0.14200
C254        C  0.22059978  0.16138414  0.43316246    -0.29400
H255        H  0.24388445  0.21755743  0.41538257     0.14800
H256        H  0.19700286  0.13291873  0.43150057     0.15400
C257        C  0.40701529  0.26732076  0.42187592    -0.14200
C258        C  0.43452509  0.26441403  0.40594864    -0.29400
H259        H  0.40532424  0.29278211  0.41881168     0.14800
H260        H  0.43624251  0.23896333  0.40896237     0.15400
C261        C  0.25035162  0.19403089  0.07901234    -0.14200
C262        C  0.21663400  0.16562047  0.08824322    -0.29400
H263        H  0.25866801  0.22277073  0.08647040     0.14800
H264        H  0.20929520  0.13732124  0.08000196     0.15400
C265        C  0.43122677  0.24440280  0.08698792    -0.14200
C266        C  0.43531096  0.27667590  0.09941309    -0.29400
H267        H  0.45072163  0.23523013  0.09463605     0.14800
H268        H  0.41577433  0.28560362  0.09117677     0.15400
C269        C  0.07300770  0.22859731  0.39127372    -0.14200
C270        C  0.07320083  0.25662106  0.40950789    -0.29400
H271        H  0.09506988  0.22205576  0.39586228     0.14800
H272        H  0.05054324  0.26249124  0.40607555     0.15400
C273        C  0.07505710  0.22643015  0.06407700    -0.14200
C274        C  0.04421440  0.22512971  0.07667478    -0.29400
H275        H  0.08037821  0.20359137  0.06995344     0.14800
H276        H  0.03916249  0.24829348  0.07164846     0.15400
C277        C  0.19137303  0.45645448  0.42294366    -0.14200
C278        C  0.16310941  0.42782280  0.43967143    -0.29400
H279        H  0.21944918  0.46093233  0.42522447     0.14800
H280        H  0.13516739  0.42358636  0.43664488     0.15400
C281        C  0.26935566  0.31461893  0.40792323    -0.14200
C282        C  0.26641446  0.34257517  0.42373902    -0.29400
H283        H  0.24629329  0.28585132  0.40916342     0.14800
H284        H  0.28979634  0.37118434  0.42256766     0.15400
C285        C  0.15553140  0.41592786  0.07528037    -0.14200
C286        C  0.18448018  0.44762760  0.08884622    -0.29400
H287        H  0.12736523  0.41101568  0.07822908     0.14800
H288        H  0.21272423  0.45268904  0.08627242     0.15400
C289        C  0.25671347  0.32109445  0.07887956    -0.14200
C290        C  0.28953392  0.35124980  0.08829165    -0.29400
H291        H  0.25009202  0.29309378  0.08723072     0.14800
H292        H  0.29676623  0.37890284  0.07835024     0.15400
Fe293      Fe  0.21178387  0.37445025  0.50559422     1.65800
Fe294      Fe  0.12066918  0.32651040  0.99472668     1.73200
Fe295      Fe  0.17181276  0.28184428  0.99434931     1.54400
O296        O  0.21540695  0.30624379  0.95903912    -0.79500
O297        O  0.09205704  0.27842793  0.53226293    -0.77800
O298        O  0.24576054  0.36744092  0.97246932    -0.82000
O299        O  0.22849217  0.34838698  0.54285020    -0.76800
O300        O  0.13439360  0.26019230  0.95249472    -0.78600
O301        O  0.13178153  0.35644126  0.55001792    -0.81300
C302        C  0.22485895  0.31546549  0.54404190     0.99400
C303        C  0.24264143  0.33960642  0.95543927     1.06900
O304        O  0.16922505  0.32839927  0.99942969    -1.10300
O305        O  0.14217855  0.36928349  0.95743461    -0.72700
O306        O  0.20297883  0.40401282  0.97003072    -0.76200
O307        O  0.20329749  0.28881188  0.52356167    -0.76900
C308        C  0.17451291  0.39767978  0.95226700     0.98300
O309        O  0.19253432  0.39583009  0.54510650    -0.74900
O310        O  0.09899450  0.28665342  0.95423491    -0.80100
C311        C  0.09723417  0.25074879  0.53651295     1.01000
C312        C  0.10662572  0.26261531  0.94168278     1.06900
O313        O  0.12301015  0.24815592  0.52130732    -0.75700
C314        C  0.16130467  0.38579573  0.55939510     1.05200
Fe315      Fe  0.37341883  0.15664184  0.00879889     1.65800
Fe316      Fe  0.27673742  0.12324198  0.50657601     1.73200
Fe317      Fe  0.31769845  0.21832415  0.50157962     1.54400
O318        O  0.35568210  0.24096434  0.54177639    -0.79500
O319        O  0.26654535  0.14913204  0.96568853    -0.77800
O320        O  0.39653433  0.22211107  0.52890830    -0.82000
O321        O  0.40557488  0.19628667  0.97237589    -0.76800
O322        O  0.27449016  0.19768060  0.53829384    -0.78600
O323        O  0.28989078  0.09365420  0.97206429    -0.81300
C324        C  0.40463595  0.22346356  0.95794158     0.99400
C325        C  0.38680363  0.24248221  0.54606265     1.06900
O326        O  0.32168454  0.17243590  0.50130073    -1.10300
O327        O  0.30278078  0.10039610  0.53684580    -0.72700
O328        O  0.36346725  0.14211274  0.53786941    -0.76200
O329        O  0.38228093  0.23454413  0.96733957    -0.76900
C330        C  0.33589012  0.11117646  0.54723807     0.98300
O331        O  0.35142209  0.11930376  0.96852176    -0.74900
O332        O  0.26152864  0.13953343  0.55172696    -0.80100
C333        C  0.27704902  0.18228019  0.95487571     1.01000
C334        C  0.25742415  0.16787032  0.55656211     1.06900
O335        O  0.30446484  0.21136648  0.96831949    -0.75700
C336        C  0.31882437  0.09522917  0.95893360     1.05200
C337        C  0.46793275  0.50257856  0.61392303     0.04500
C338        C  0.46838114  0.46849361  0.61306358     0.04500
C339        C  0.99898534  0.46076146  0.62370123     0.04500
C340        C  0.03399881  0.49347037  0.62101965     0.04500
C341        C  0.03082946  0.03214819  0.61873601     0.04500
C342        C  0.99639650  0.03033720  0.62404361     0.04500
C343        C  0.31124538  0.47162601  0.65651430     0.82400
N344        N  0.29653962  0.00064031  0.62042077    -0.75900
C345        C  0.32438402  0.02592341  0.59992124     0.84900
N346        N  0.35727013  0.02571951  0.59825213    -0.75800
C347        C  0.36164897  0.99991086  0.61718362     0.85000
N348        N  0.34448052  0.47388504  0.65025083    -0.77500
C349        C  0.19277410  0.03860007  0.63949168     0.82400
N350        N  0.20079735  0.01265479  0.62627927    -0.75900
C351        C  0.17488646  0.47284766  0.61014969     0.84900
N352        N  0.13977627  0.46762825  0.60752544    -0.75800
C353        C  0.13328677  0.00594459  0.61440314     0.85000
N354        N  0.15915071  0.03523813  0.63331216    -0.77500
C355        C  0.18532233  0.18131350  0.60777579     0.82400
N356        N  0.18147271  0.20770606  0.62625161    -0.75900
C357        C  0.14813982  0.19829276  0.64156896     0.84900
N358        N  0.11893177  0.16286754  0.63775949    -0.75800
C359        C  0.12257145  0.13680770  0.61914848     0.85000
N360        N  0.15567764  0.14589353  0.60444166    -0.77500
C361        C  0.46732443  0.16764544  0.62998149     0.82400
N362        N  0.46684905  0.13421366  0.63111187    -0.75900
C363        C  0.49316255  0.12999161  0.61394789     0.84900
N364        N  0.01650163  0.15577407  0.59917842    -0.75800
C365        C  0.01510235  0.18804138  0.59604190     0.85000
N366        N  0.49434048  0.19681264  0.61168185    -0.77500
C367        C  0.30673076  0.33345239  0.60333576     0.82400
N368        N  0.33925084  0.36663861  0.60343135    -0.75900
C369        C  0.37119434  0.36837722  0.61377951     0.84900
N370        N  0.37092589  0.33698534  0.62470539    -0.75800
C371        C  0.33873515  0.30348514  0.62569531     0.85000
N372        N  0.30613409  0.30138793  0.61475142    -0.77500
C373        C  0.01807646  0.32162218  0.65325491     0.82400
N374        N  0.99117816  0.29110266  0.63563713    -0.75900
C375        C  0.47370966  0.30496727  0.60044863     0.84900
N376        N  0.47469722  0.33856768  0.59904964    -0.75800
C377        C  0.99255386  0.35797696  0.63227729     0.85000
N378        N  0.01862093  0.35502375  0.65133991    -0.77500
Fe379      Fe  0.33465917  0.12085586  0.75598533     1.65800
Fe380      Fe  0.28528781  0.16635792  0.74742143     1.73200
Fe381      Fe  0.37854577  0.21239672  0.73068846     1.54400
O382        O  0.41042545  0.20337271  0.76800075    -0.79500
O383        O  0.29265825  0.19683548  0.70240855    -0.77800
O384        O  0.37334637  0.14869005  0.79482816    -0.82000
O385        O  0.37675674  0.13205346  0.72065561    -0.76800
O386        O  0.37070158  0.24415059  0.76715766    -0.78600
O387        O  0.25997401  0.11793602  0.71686964    -0.81300
C388        C  0.39276261  0.15519772  0.69600232     0.99400
C389        C  0.40406241  0.17957391  0.79228980     1.06900
O390        O  0.33263803  0.16667860  0.74477358    -1.10300
O391        O  0.26759082  0.13576810  0.79312480    -0.72700
O392        O  0.29188177  0.09847813  0.79285746    -0.76200
O393        O  0.39064767  0.18478610  0.69253539    -0.76900
C394        C  0.26870721  0.10741330  0.80445540     0.98300
O395        O  0.29693338  0.09224440  0.71718182    -0.74900
O396        O  0.30923673  0.21522227  0.77744228    -0.80100
C397        C  0.32029649  0.22089231  0.68521395     1.01000
C398        C  0.34259051  0.24205960  0.78229797     1.06900
O399        O  0.35343145  0.22864409  0.69225742    -0.75700
C400        C  0.26901354  0.09406092  0.70597050     1.05200
Fe401      Fe  0.11733209  0.29160986  0.75745134     1.65800
Fe402      Fe  0.21211413  0.33793805  0.75979576     1.73200
Fe403      Fe  0.16606085  0.38635893  0.76926941     1.54400
O404        O  0.11994370  0.37117467  0.73669051    -0.79500
O405        O  0.23142309  0.36698952  0.80572149    -0.77800
O406        O  0.09945399  0.31262348  0.71766077    -0.82000
O407        O  0.09026548  0.30773574  0.79461922    -0.76800
O408        O  0.19950797  0.41032672  0.72650416    -0.78600
O409        O  0.19170430  0.28804145  0.78888062    -0.81300
C410        C  0.10025385  0.33630696  0.81454409     0.99400
C411        C  0.09918414  0.34342350  0.71685275     1.06900
O412        O  0.16517354  0.33857071  0.76214955    -1.10300
O413        O  0.19814265  0.30894986  0.71349280    -0.72700
O414        O  0.13732788  0.26907112  0.71936370    -0.76200
O415        O  0.13205872  0.36575247  0.81230230    -0.76900
C416        C  0.16835625  0.28008524  0.70388446     0.98300
O417        O  0.13093058  0.26638410  0.79675219    -0.74900
O418        O  0.23837845  0.38759167  0.73025154    -0.80100
C419        C  0.23392211  0.39773436  0.81509057     1.01000
C420        C  0.22885144  0.41030141  0.71734588     1.06900
O421        O  0.21302997  0.40942937  0.80242503    -0.75700
C422        C  0.16045342  0.26518454  0.80277812     1.05200
C423        C  0.47040198  0.00024769  0.86895401     0.04500
C424        C  0.46935033  0.46314289  0.87509406     0.04500
C425        C  0.99992118  0.46748565  0.86890995     0.04500
C426        C  0.03425574  0.50179324  0.87067146     0.04500
C427        C  0.03525718  0.03248764  0.86403583     0.04500
C428        C  0.00122585  0.03239094  0.86576471     0.04500
C429        C  0.19780806  0.02115115  0.85779037     0.82800
N430        N  0.19542607  0.99100444  0.87536256    -0.75900
C431        C  0.15576229  0.45918243  0.88970442     0.84900
N432        N  0.12617122  0.46460084  0.88819769    -0.75800
C433        C  0.13341056  0.99700046  0.86686191     0.85000
N434        N  0.16656182  0.02401188  0.85377764    -0.77500
C435        C  0.30911343  0.48061897  0.86824266     0.82400
N436        N  0.31145471  0.01049882  0.88248364    -0.75900
C437        C  0.34335622  0.03533191  0.89929985     0.84900
N438        N  0.37433581  0.03216575  0.89602992    -0.75800
C439        C  0.37349932  0.00411716  0.87648569     0.85000
N440        N  0.33950048  0.47655724  0.86310241    -0.77500
C441        C  0.46703151  0.16236533  0.85346278     0.82400
N442        N  0.49327351  0.19452326  0.86962924    -0.75900
C443        C  0.02014414  0.19431772  0.88477366     0.84900
N444        N  0.02418070  0.16324577  0.88489768    -0.75800
C445        C  0.50080088  0.13229013  0.86837151     0.85000
N446        N  0.47081896  0.13138276  0.85333711    -0.77500
C447        C  0.19728595  0.16048984  0.89019291     0.82400
N448        N  0.16319325  0.12931057  0.88665870    -0.75900
C449        C  0.13612949  0.13029797  0.86764276     0.84900
N450        N  0.14313183  0.16275646  0.85183523    -0.75800
C451        C  0.17728625  0.19432907  0.85479532     0.85000
N452        N  0.20447721  0.19314067  0.87406810    -0.77500
C453        C  0.01104695  0.31952624  0.86126726     0.82400
N454        N  0.98039020  0.29246568  0.87839180    -0.75900
C455        C  0.46179266  0.29847709  0.89088770     0.84900
N456        N  0.46678540  0.33367201  0.89018560    -0.75800
C457        C  0.99132088  0.36352584  0.87243015     0.85000
N458        N  0.01625246  0.35498939  0.85850322    -0.77500
C459        C  0.30651389  0.32678083  0.89229197     0.82400
N460        N  0.30209651  0.29894229  0.87049395    -0.75900
C461        C  0.33026970  0.30322854  0.84986338     0.84900
N462        N  0.36368828  0.33580442  0.85119388    -0.75800
C463        C  0.36859607  0.36402492  0.87319206     0.85000
N464        N  0.33986798  0.35956853  0.89374241    -0.77500
C465        C  0.00152702  0.06794223  0.86841213    -0.11000
C466        C  0.50393931  0.09901166  0.86825115    -0.12600
C467        C  0.10001148  0.09697856  0.86492987    -0.11000
C468        C  0.07037753  0.06802613  0.86405890    -0.12600
C469        C  0.43402750  0.42746723  0.87479838    -0.11000
C470        C  0.40416719  0.39854364  0.87444731    -0.12600
C471        C  0.40673988  0.00144062  0.87290875    -0.11000
C472        C  0.43538247  0.00049120  0.87063752    -0.12600
C473        C  0.06879134  0.50123974  0.87072920    -0.11000
C474        C  0.10009081  0.99932657  0.86316224    -0.12600
C475        C  0.99916048  0.43159432  0.86880311    -0.11000
C476        C  0.99676710  0.40098051  0.86968433    -0.12600
C477        C  0.18482172  0.22931904  0.83631583    -0.14200
C478        C  0.15653109  0.23422016  0.82557230    -0.29400
H479        H  0.21347504  0.25058710  0.83087520     0.14800
H480        H  0.12821755  0.21335273  0.83274421     0.15400
C481        C  0.07370115  0.33802151  0.83946256    -0.14200
C482        C  0.03800754  0.31066620  0.84411172    -0.29400
H483        H  0.08312772  0.36517530  0.85200866     0.14800
H484        H  0.02800980  0.28268811  0.83330124     0.15400
C485        C  0.26450403  0.42102536  0.83974866    -0.14200
C486        C  0.27356214  0.45597215  0.84978029    -0.29400
H487        H  0.28252093  0.41004056  0.84752110     0.14800
H488        H  0.25529958  0.46708081  0.84354314     0.15400
C489        C  0.43396191  0.15943899  0.83597887    -0.14200
C490        C  0.43459509  0.18742692  0.81721947    -0.29400
H491        H  0.40983253  0.13130486  0.83409517     0.14800
H492        H  0.45967017  0.21495734  0.81681580     0.15400
C493        C  0.23951462  0.08297668  0.83002182    -0.14200
C494        C  0.23335861  0.04890898  0.84060601    -0.29400
H495        H  0.21946556  0.09156864  0.83718608     0.14800
H496        H  0.25348529  0.04013286  0.83446855     0.15400
C497        C  0.32325538  0.27231658  0.82610154    -0.14200
C498        C  0.34999172  0.27291161  0.80634712    -0.29400
H499        H  0.29513465  0.24827010  0.82501955     0.14800
H500        H  0.37828019  0.29659465  0.80795203     0.15400
C501        C  0.04621250  0.31814890  0.67457129    -0.14200
C502        C  0.07318604  0.34735820  0.69281972    -0.29400
H503        H  0.04392702  0.29060207  0.67610394     0.14800
H504        H  0.07513719  0.37477257  0.69159735     0.15400
C505        C  0.31310793  0.24261881  0.65806119    -0.14200
C506        C  0.34118450  0.27174595  0.64149445    -0.29400
H507        H  0.28507777  0.23828930  0.65576520     0.14800
H508        H  0.36919070  0.27626574  0.64490923     0.15400
C509        C  0.41557145  0.14733039  0.67169371    -0.14200
C510        C  0.44014940  0.17348952  0.64982439    -0.29400
H511        H  0.41428270  0.12028318  0.67403237     0.14800
H512        H  0.44215858  0.20091891  0.64815937     0.15400
C513        C  0.14326501  0.22438048  0.66488724    -0.14200
C514        C  0.17146601  0.25806062  0.67463116    -0.29400
H515        H  0.11608582  0.21393268  0.67683976     0.14800
H516        H  0.19880475  0.26832406  0.66307641     0.15400
C517        C  0.21841624  0.06845452  0.66307936    -0.14200
C518        C  0.24621266  0.06672770  0.67907188    -0.29400
H519        H  0.21231439  0.09062844  0.66965279     0.14800
H520        H  0.25201782  0.04427610  0.67281353     0.15400
C521        C  0.28551627  0.44238227  0.68107163    -0.14200
C522        C  0.25278044  0.43852058  0.69102225    -0.29400
H523        H  0.29458926  0.42385167  0.69210639     0.14800
H524        H  0.24367659  0.45717437  0.68034647     0.15400
C525        C  0.06443677  0.06843257  0.61587649    -0.11000
C526        C  0.09158258  0.09936950  0.61612106    -0.12600
C527        C  0.49259118  0.06514599  0.61709803    -0.11000
C528        C  0.49274729  0.09467646  0.61541921    -0.12600
C529        C  0.09731617  0.00183761  0.61061906    -0.11000
C530        C  0.06724257  0.49043091  0.61910728    -0.12600
C531        C  0.99623810  0.42406139  0.62665405    -0.11000
C532        C  0.99419341  0.39373978  0.62937809    -0.12600
C533        C  0.43380495  0.43310433  0.61346099    -0.11000
C534        C  0.40517976  0.40351716  0.61358934    -0.12600
C535        C  0.40410680  0.50196699  0.62181952    -0.11000
C536        C  0.43299443  0.50226646  0.61739912    -0.12600
C537        C  0.31492488  0.06720489  0.93226737    -0.14200
C538        C  0.34503637  0.06523800  0.92192769    -0.29400
H539        H  0.28727552  0.04674564  0.92289176     0.14800
H540        H  0.37241109  0.08524583  0.93224220     0.15400
C541        C  0.31707023  0.05197192  0.57919960    -0.14200
C542        C  0.34373790  0.08648162  0.56972813    -0.29400
H543        H  0.28818615  0.04271636  0.57273821     0.14800
H544        H  0.37244917  0.09628317  0.57736888     0.15400
C545        C  0.22460794  0.15773718  0.91312109    -0.14200
C546        C  0.25546511  0.18739166  0.92639783    -0.29400
H547        H  0.21683017  0.12956649  0.92198465     0.14800
H548        H  0.26320974  0.21579862  0.91836001     0.15400
C549        C  0.43173194  0.24358196  0.92984379    -0.14200
C550        C  0.43025074  0.27045301  0.91135342    -0.29400
H551        H  0.45478715  0.23835803  0.92627512     0.14800
H552        H  0.40757640  0.27608092  0.91581002     0.15400
C553        C  0.22912617  0.16381982  0.58246164    -0.14200
C554        C  0.22075694  0.19090684  0.58994760    -0.29400
H555        H  0.21176153  0.13578916  0.59320424     0.14800
H556        H  0.23863008  0.21952816  0.58095245     0.15400
C557        C  0.41328391  0.27083155  0.57075526    -0.14200
C558        C  0.44524630  0.27250770  0.58049420    -0.29400
H559        H  0.40700108  0.29215668  0.57997349     0.14800
H560        H  0.45098427  0.25030708  0.57305525     0.15400
C561        C  0.04803270  0.22923224  0.90409168    -0.14200
C562        C  0.08140735  0.23409668  0.91515359    -0.29400
H563        H  0.03994394  0.24977296  0.91133285     0.14800
H564        H  0.08922448  0.21357727  0.90700411     0.15400
C565        C  0.07171201  0.21970448  0.55950037    -0.14200
C566        C  0.04287648  0.21992285  0.57533072    -0.29400
H567        H  0.07596334  0.19575021  0.56247002     0.14800
H568        H  0.03882464  0.24401189  0.57241891     0.15400
C569        C  0.15141499  0.42658826  0.90989010    -0.14200
C570        C  0.18008175  0.42590398  0.92533140    -0.29400
H571        H  0.12315474  0.40467886  0.91591044     0.14800
H572        H  0.20827871  0.44881452  0.92077143     0.15400
C573        C  0.27480426  0.31980953  0.91431431    -0.14200
C574        C  0.27322739  0.34730967  0.93143938    -0.29400
H575        H  0.25190932  0.29096783  0.91623326     0.14800
H576        H  0.29583150  0.37623073  0.92898448     0.15400
C577        C  0.15726313  0.41014619  0.58579436    -0.14200
C578        C  0.18400793  0.44575379  0.59318422    -0.29400
H579        H  0.12932472  0.40018413  0.59577801     0.14800
H580        H  0.21234317  0.45612166  0.58422659     0.15400
C581        C  0.24821420  0.30764483  0.56851647    -0.14200
C582        C  0.27382548  0.33442574  0.58940644    -0.29400
H583        H  0.24781911  0.28108233  0.56573111     0.14800
H584        H  0.27507961  0.36153587  0.59066883     0.15400
Fe585      Fe  0.21975776  0.87760833  0.00635364     1.65800
Fe586      Fe  0.11800254  0.83180263  0.51088491     1.73200
Fe587      Fe  0.17302790  0.79290108  0.49731970     1.54400
O588        O  0.20744750  0.81526963  0.45454837    -0.79500
O589        O  0.10287190  0.79097546  0.03274968    -0.77800
O590        O  0.24000737  0.87649066  0.46655588    -0.82000
O591        O  0.24000940  0.85114178  0.03801725    -0.76800
O592        O  0.12794298  0.76793154  0.46284044    -0.78600
O593        O  0.14236978  0.87385595  0.03207230    -0.81300
C594        C  0.22929978  0.81762762  0.04772699     0.99400
C595        C  0.23457150  0.84799907  0.44885380     1.06900
O596        O  0.16760658  0.83747343  0.50432276    -1.10300
O597        O  0.12977707  0.87831204  0.48105637    -0.72700
O598        O  0.18963440  0.90612780  0.46578913    -0.76200
O599        O  0.20195448  0.78921540  0.03390152    -0.76900
C600        C  0.15720431  0.90197951  0.46314069     0.98300
O601        O  0.19873983  0.88788212  0.05044593    -0.74900
O602        O  0.09731080  0.79977705  0.46650164    -0.80100
C603        C  0.10283812  0.75989620  0.03466057     1.01000
C604        C  0.10230035  0.77447112  0.45291061     1.06900
O605        O  0.12461408  0.75299868  0.01666700    -0.75700
C606        C  0.16984485  0.89052445  0.05309034     1.05200
Fe607      Fe  0.37496091  0.66987912  0.50696225     1.65800
Fe608      Fe  0.28147557  0.61722100  0.01633108     1.73200
Fe609      Fe  0.33144065  0.71181980  0.00162071     1.54400
O610        O  0.37222708  0.73962571  0.03960246    -0.79500
O611        O  0.24842422  0.62701282  0.48445962    -0.77800
O612        O  0.40435097  0.70940755  0.04477481    -0.82000
O613        O  0.39149888  0.70772410  0.46600068    -0.76800
O614        O  0.29035387  0.70102820  0.03953470    -0.78600
O615        O  0.29383839  0.59376841  0.47399721    -0.81300
C616        C  0.38498808  0.73390292  0.45800693     0.99400
C617        C  0.39914909  0.73671547  0.05224661     1.06900
O618        O  0.32995724  0.66368452  0.01033604    -1.10300
O619        O  0.29913769  0.59395793  0.05370444    -0.72700
O620        O  0.36051748  0.62949330  0.05841368    -0.76200
O621        O  0.35969011  0.73772914  0.47262134    -0.76900
C622        C  0.32957924  0.60222168  0.06831879     0.98300
O623        O  0.35598632  0.62666785  0.47027666    -0.74900
O624        O  0.26691431  0.64093517  0.05564575    -0.80100
C625        C  0.25263096  0.65530642  0.46726601     1.01000
C626        C  0.26921487  0.67279460  0.05869108     1.06900
O627        O  0.28026345  0.68816797  0.47162745    -0.75700
C628        C  0.32420643  0.60041967  0.46002823     1.05200
C629        C  0.46553022  0.99812707  0.12255562     0.04500
C630        C  0.46804943  0.96525288  0.11938592     0.04500
C631        C  0.99683113  0.96466275  0.12418733     0.04500
C632        C  0.02880307  0.00063390  0.12159614     0.04500
C633        C  0.04352128  0.53968447  0.10987990     0.04500
C634        C  0.00949209  0.53935150  0.11309549     0.04500
C635        C  0.30988989  0.98412975  0.15490835     0.82400
N636        N  0.32685785  0.51562029  0.13622997    -0.75900
C637        C  0.35911325  0.54650677  0.12567158     0.84900
N638        N  0.39168693  0.54636802  0.12754003    -0.75800
C639        C  0.39224180  0.51572775  0.13961977     0.85000
N640        N  0.34012222  0.97934179  0.15414052    -0.77500
C641        C  0.20370774  0.53780990  0.13125471     0.82400
N642        N  0.20818642  0.50858766  0.12013968    -0.75900
C643        C  0.14935156  0.95938343  0.10162918     0.84900
N644        N  0.12100998  0.96677946  0.10202648    -0.75800
C645        C  0.14245861  0.50671402  0.10955291     0.85000
N646        N  0.17088328  0.53658737  0.12567598    -0.77500
C647        C  0.19686621  0.69075067  0.10111966     0.82400
N648        N  0.19186475  0.71665727  0.11901561    -0.75900
C649        C  0.15797952  0.70642622  0.13347583     0.84900
N650        N  0.12942461  0.67062682  0.12954640    -0.75800
C651        C  0.13436054  0.64492723  0.11171850     0.85000
N652        N  0.16797844  0.65489500  0.09777694    -0.77500
C653        C  0.49563951  0.67866519  0.15892029     0.82400
N654        N  0.49702160  0.64625328  0.16088005    -0.75900
C655        C  0.52398389  0.64323233  0.14359484     0.84900
N656        N  0.02690073  0.66620262  0.09981821    -0.75800
C657        C  0.02586658  0.69881783  0.10094930     0.85000
N658        N  0.52109950  0.70774892  0.13948910    -0.77500
C659        C  0.30976376  0.83613213  0.10739827     0.82400
N660        N  0.34366173  0.86720116  0.11061629    -0.75900
C661        C  0.37239382  0.86496101  0.12450875     0.84900
N662        N  0.36745232  0.83134261  0.13547466    -0.75800
C663        C  0.33331330  0.79977731  0.13259305     0.85000
N664        N  0.30439968  0.80224962  0.11851397    -0.77500
C665        C  0.03835923  0.83702378  0.13587950     0.82400
N666        N  0.01363339  0.80732961  0.11619974    -0.75900
C667        C  0.48597469  0.80747911  0.10599012     0.84900
N668        N  0.48391189  0.83917866  0.10050702    -0.75800
C669        C  0.00770964  0.87032253  0.12018022     0.85000
N670        N  0.03533388  0.86859652  0.13786686    -0.77500
Fe671      Fe  0.33818256  0.61975950  0.25696630     1.65800
Fe672      Fe  0.29480602  0.67032444  0.23724471     1.73200
Fe673      Fe  0.38985833  0.71516240  0.24565471     1.54400
O674        O  0.40773367  0.70250506  0.29132186    -0.79500
O675        O  0.31737526  0.70829210  0.19660219    -0.77800
O676        O  0.37226217  0.64078116  0.30028155    -0.82000
O677        O  0.38277068  0.63021747  0.22573067    -0.76800
O678        O  0.37137766  0.74422712  0.27533421    -0.78600
O679        O  0.27610640  0.62631540  0.20101586    -0.81300
C680        C  0.40962439  0.65902066  0.21196818     0.99400
C681        C  0.39857894  0.67310988  0.30908812     1.06900
O682        O  0.34090410  0.66840482  0.24654880    -1.10300
O683        O  0.26435813  0.63325146  0.27657006    -0.72700
O684        O  0.29330699  0.60162131  0.28987202    -0.76200
O685        O  0.41456201  0.69192949  0.21587024    -0.76900
C686        C  0.26691992  0.60842884  0.29399379     0.98300
O687        O  0.30387178  0.59316917  0.21473922    -0.74900
O688        O  0.30920557  0.71438027  0.27279614    -0.80100
C689        C  0.34989943  0.73167007  0.18613011     1.01000
C690        C  0.34039534  0.74100802  0.28384701     1.06900
O691        O  0.37905043  0.73498281  0.20025310    -0.75700
C692        C  0.28158537  0.59860420  0.19617434     1.05200
Fe693      Fe  0.12146163  0.79654509  0.24766136     1.65800
Fe694      Fe  0.21452535  0.83484733  0.26369154     1.73200
Fe695      Fe  0.17702785  0.89165458  0.25897998     1.54400
O696        O  0.13827239  0.88239681  0.22038005    -0.79500
O697        O  0.22874932  0.86393824  0.31023554    -0.77800
O698        O  0.10944848  0.82156203  0.20680287    -0.82000
O699        O  0.09571765  0.81503354  0.28331190    -0.76800
O700        O  0.21760614  0.91142974  0.22112604    -0.78600
O701        O  0.18645350  0.78570458  0.29188875    -0.81300
C702        C  0.10539280  0.84547421  0.30030805     0.99400
C703        C  0.11521880  0.85464746  0.20210890     1.06900
O704        O  0.17074266  0.84080201  0.25688121    -1.10300
O705        O  0.20471928  0.80558771  0.21765596    -0.72700
O706        O  0.14280581  0.77445421  0.21084644    -0.76200
O707        O  0.13658908  0.87534351  0.29642420    -0.76900
C708        C  0.17543330  0.78202640  0.20160663     0.98300
O709        O  0.12570032  0.76439844  0.28713733    -0.74900
O710        O  0.24947329  0.88301005  0.23621759    -0.80100
C711        C  0.23271658  0.89606180  0.31654948     1.01000
C712        C  0.24597399  0.90741932  0.21889200     1.06900
O713        O  0.21709523  0.91014812  0.29824852    -0.75700
C714        C  0.15293953  0.76220770  0.29947871     1.05200
C715        C  0.46607147  0.49568993  0.38169870     0.04500
C716        C  0.45828180  0.96031936  0.37351808     0.04500
C717        C  0.99993826  0.96588000  0.36260311     0.04500
C718        C  0.03417833  0.99977936  0.36532058     0.04500
C719        C  0.04040329  0.52785418  0.37377534     0.04500
C720        C  0.00600591  0.52712570  0.37401664     0.04500
C721        C  0.20727594  0.53214284  0.36064457     0.82800
N722        N  0.21286496  0.50857514  0.38140996    -0.75900
C723        C  0.16964544  0.97477749  0.39409587     0.84900
N724        N  0.13677498  0.97476440  0.39459525    -0.75800
C725        C  0.14445370  0.50232681  0.37838889     0.85000
N726        N  0.17293934  0.52896900  0.35906820    -0.77500
C727        C  0.30179685  0.98112771  0.36943982     0.82400
N728        N  0.31695240  0.52185720  0.37817161    -0.75900
C729        C  0.34846089  0.54387522  0.39710622     0.84900
N730        N  0.37676510  0.53632854  0.39697462    -0.75800
C731        C  0.37380101  0.50685099  0.37841009     0.85000
N732        N  0.33176444  0.97604565  0.36803300    -0.77500
C733        C  0.45235626  0.65014433  0.37506080     0.82400
N734        N  0.47795743  0.68361388  0.38956947    -0.75900
C735        C  0.04256719  0.69052040  0.39341781     0.84900
N736        N  0.03929250  0.65610664  0.39028414    -0.75800
C737        C  0.48931724  0.62380667  0.39085510     0.85000
N738        N  0.45814705  0.62038396  0.37588465    -0.77500
C739        C  0.19403897  0.67089340  0.39872187     0.82400
N740        N  0.16297711  0.63650415  0.39559301    -0.75900
C741        C  0.13460972  0.63161561  0.37439660     0.84900
N742        N  0.13704927  0.66135496  0.35633254    -0.75800
C743        C  0.16822224  0.69589332  0.35937828     0.85000
N744        N  0.19657948  0.70034883  0.38041674    -0.77500
C745        C  0.01809549  0.82412162  0.35208435     0.82400
N746        N  0.99035135  0.79480336  0.36952760    -0.75900
C747        C  0.46775905  0.79762595  0.39890699     0.84900
N748        N  0.46581393  0.82975951  0.39647728    -0.75800
C749        C  0.99369216  0.86271968  0.36933566     0.85000
N750        N  0.01966278  0.85805493  0.35207840    -0.77500
C751        C  0.29268138  0.82917658  0.38232473     0.82400
N752        N  0.28845690  0.80011498  0.36182019    -0.75900
C753        C  0.31787558  0.80271606  0.34378377     0.84900
N754        N  0.35175730  0.83458998  0.34662439    -0.75800
C755        C  0.35624279  0.86364194  0.36709733     0.85000
N756        N  0.32670680  0.86090436  0.38491560    -0.77500
C757        C  0.00546369  0.56199476  0.37183900    -0.11000
C758        C  0.49581237  0.59255534  0.38994065    -0.12600
C759        C  0.10199322  0.59494131  0.37180431    -0.11000
C760        C  0.07470107  0.56394795  0.37183292    -0.12600
C761        C  0.42256043  0.92534135  0.37225550    -0.11000
C762        C  0.39236940  0.89706284  0.37019638    -0.12600
C763        C  0.40389129  0.49911568  0.37904708    -0.11000
C764        C  0.43114716  0.49579848  0.38049360    -0.12600
C765        C  0.06832957  0.99873364  0.37026916    -0.11000
C766        C  0.10782914  0.49838321  0.37683546    -0.12600
C767        C  0.99822538  0.92955553  0.36605215    -0.11000
C768        C  0.99571069  0.89890321  0.36836816    -0.12600
C769        C  0.17320484  0.72854277  0.33895337    -0.14200
C770        C  0.14531285  0.73024158  0.32262970    -0.29400
H771        H  0.20144657  0.75223733  0.33721207     0.14800
H772        H  0.11677273  0.70738062  0.32536789     0.15400
C773        C  0.07902733  0.84799540  0.32439088    -0.14200
C774        C  0.04560535  0.81864936  0.33239883    -0.29400
H775        H  0.08678142  0.87579815  0.33450753     0.14800
H776        H  0.03805614  0.79038080  0.32393895     0.15400
C777        C  0.25937324  0.91900685  0.34414071    -0.14200
C778        C  0.26680516  0.95412137  0.35179684    -0.29400
H779        H  0.27676321  0.90861371  0.35512990     0.14800
H780        H  0.24883967  0.96439353  0.34209370     0.15400
C781        C  0.42097077  0.64668776  0.35417563    -0.14200
C782        C  0.42157389  0.67687457  0.33993009    -0.29400
H783        H  0.40029345  0.61856537  0.34553585     0.14800
H784        H  0.44334927  0.70504110  0.34727048     0.15400
C785        C  0.23704107  0.58555900  0.31911451    -0.14200
C786        C  0.23833159  0.55903443  0.33866322    -0.29400
H787        H  0.21289323  0.58931253  0.32029737     0.14800
H788        H  0.26290134  0.55595350  0.33786171     0.15400
C789        C  0.31293920  0.77093501  0.32138481    -0.14200
C790        C  0.34245850  0.77075604  0.30716378    -0.29400
H791        H  0.28499923  0.74751839  0.31678250     0.14800
H792        H  0.37027332  0.79393266  0.31286013     0.15400
C793        C  0.06595457  0.83288621  0.15703102    -0.14200
C794        C  0.09292416  0.86123830  0.17573837    -0.29400
H795        H  0.06251832  0.80485145  0.15869776     0.14800
H796        H  0.09672480  0.88939810  0.17377901     0.15400
C797        C  0.35484032  0.75908869  0.15873966    -0.14200
C798        C  0.32657503  0.76392513  0.14801046    -0.29400
H799        H  0.38327292  0.77985058  0.15182570     0.14800
H800        H  0.29800330  0.74309946  0.15434562     0.15400
C801        C  0.43672928  0.65373125  0.19149676    -0.14200
C802        C  0.46689774  0.68296327  0.17734533    -0.29400
H803        H  0.43244202  0.62540536  0.18905735     0.14800
H804        H  0.47076891  0.71117040  0.17915821     0.15400
C805        C  0.15216684  0.73193130  0.15657747    -0.14200
C806        C  0.18060810  0.76205628  0.17183584    -0.29400
H807        H  0.12380750  0.72293444  0.16466445     0.14800
H808        H  0.20902244  0.77011682  0.16472886     0.15400
C809        C  0.23233162  0.57032585  0.15126678    -0.14200
C810        C  0.26001830  0.56990529  0.16903014    -0.29400
H811        H  0.22741511  0.59378160  0.15504159     0.14800
H812        H  0.26436731  0.54597134  0.16635544     0.15400
C813        C  0.27731133  0.95931577  0.17639424    -0.14200
C814        C  0.27688841  0.93184624  0.19577542    -0.29400
H815        H  0.25378023  0.96411090  0.17676297     0.14800
H816        H  0.30054526  0.92724846  0.19527310     0.15400
C817        C  0.07780917  0.57551558  0.10869225    -0.11000
C818        C  0.10442643  0.60683088  0.10913605    -0.12600
C819        C  0.52424578  0.57901118  0.14371077    -0.11000
C820        C  0.52466940  0.60861750  0.14443839    -0.12600
C821        C  0.10759469  0.50542680  0.10594818    -0.11000
C822        C  0.06517601  0.00404469  0.12037533    -0.12600
C823        C  0.00046890  0.93103221  0.12368141    -0.11000
C824        C  0.00404402  0.90348290  0.12243935    -0.12600
C825        C  0.43553053  0.92871246  0.12437172    -0.11000
C826        C  0.40784107  0.89842042  0.12629292    -0.12600
C827        C  0.40193548  0.99730541  0.13320455    -0.11000
C828        C  0.43003410  0.99581126  0.12941583    -0.12600
C829        C  0.32174747  0.57525762  0.43137440    -0.14200
C830        C  0.35173605  0.57423778  0.41995577    -0.29400
H831        H  0.29417750  0.55462930  0.42188905     0.14800
H832        H  0.37909079  0.59363693  0.43072316     0.15400
C833        C  0.35944206  0.57859840  0.10825969    -0.14200
C834        C  0.32833074  0.57695838  0.09626445    -0.29400
H835        H  0.38643023  0.60181975  0.10054812     0.14800
H836        H  0.30129916  0.55324729  0.10312799     0.15400
C837        C  0.22466458  0.67700043  0.42243243    -0.14200
C838        C  0.22346387  0.64903342  0.44164893    -0.29400
H839        H  0.24828136  0.70539771  0.42474951     0.14800
H840        H  0.19985597  0.62063979  0.43923362     0.15400
C841        C  0.40887260  0.76276559  0.43218125    -0.14200
C842        C  0.43988179  0.76475199  0.41900417    -0.29400
H843        H  0.40260749  0.78497336  0.42640276     0.14800
H844        H  0.44613773  0.74249779  0.42458993     0.15400
C845        C  0.24342150  0.67428042  0.08431719    -0.14200
C846        C  0.23307572  0.70052980  0.08504354    -0.29400
H847        H  0.22750940  0.64888920  0.09979780     0.14800
H848        H  0.24854437  0.72668320  0.07070105     0.15400
C849        C  0.42594653  0.76806158  0.07516645    -0.14200
C850        C  0.45754893  0.77140794  0.08921906    -0.29400
H851        H  0.42028042  0.79104595  0.07869379     0.14800
H852        H  0.46339585  0.74845509  0.08687829     0.15400
C853        C  0.07414044  0.71928370  0.41394991    -0.14200
C854        C  0.07554096  0.75077818  0.42560722    -0.29400
H855        H  0.09492462  0.71229786  0.42274623     0.14800
H856        H  0.05417000  0.75729173  0.41769622     0.15400
C857        C  0.07682118  0.72948557  0.05815358    -0.14200
C858        C  0.05150133  0.73130611  0.07886399    -0.29400
H859        H  0.07866857  0.70395084  0.05798907     0.14800
H860        H  0.04940180  0.75668366  0.07947655     0.15400
C861        C  0.17662682  0.95059457  0.41761466    -0.14200
C862        C  0.15022028  0.92546860  0.43875184    -0.29400
H863        H  0.20425501  0.95367983  0.41752533     0.14800
H864        H  0.12245928  0.92204418  0.43841796     0.15400
C865        C  0.26099402  0.82476652  0.40360120    -0.14200
C866        C  0.26244520  0.85349656  0.42200054    -0.29400
H867        H  0.23678908  0.79673824  0.40565749     0.14800
H868        H  0.28645108  0.88159206  0.41941853     0.15400
C869        C  0.17039007  0.91645617  0.08011874    -0.14200
C870        C  0.14420210  0.92635683  0.08164069    -0.29400
H871        H  0.19520589  0.93106772  0.09639200     0.14800
H872        H  0.11932595  0.91170386  0.06545954     0.15400
C873        C  0.25076306  0.81115961  0.07478068    -0.14200
C874        C  0.28090434  0.84020984  0.08914434    -0.29400
H875        H  0.24420297  0.78249063  0.08002310     0.14800
H876        H  0.28745948  0.86884135  0.08335398     0.15400
Fe877      Fe  0.21171213  0.88815441  0.50462602     1.65800
Fe878      Fe  0.12633345  0.83170973  0.99395619     1.73200
Fe879      Fe  0.17344988  0.78407530  0.98840461     1.54400
O880        O  0.22250876  0.81003871  0.95945298    -0.79500
O881        O  0.09874942  0.78454557  0.54148552    -0.77800
O882        O  0.24600752  0.87212434  0.96369617    -0.82000
O883        O  0.23701463  0.87356212  0.54317509    -0.76800
O884        O  0.14463344  0.77324911  0.94223044    -0.78600
O885        O  0.13349916  0.86325361  0.55585092    -0.81300
C886        C  0.23896141  0.84388300  0.54782480     0.99400
C887        C  0.24604036  0.84376366  0.95085626     1.06900
O888        O  0.17323594  0.83107103  0.99620222    -1.10300
O889        O  0.14775265  0.87238296  0.95494716    -0.72700
O890        O  0.20544435  0.91003798  0.97532761    -0.76200
O891        O  0.21858894  0.81319926  0.53125960    -0.76900
C892        C  0.17888395  0.90317653  0.95434744     0.98300
O893        O  0.19077176  0.90870150  0.54268175    -0.74900
O894        O  0.10227858  0.78921378  0.95588847    -0.80100
C895        C  0.11006133  0.76234100  0.55095708     1.01000
C896        C  0.11325323  0.77066117  0.93752237     1.06900
O897        O  0.13941112  0.76422543  0.53904615    -0.75700
C898        C  0.16127887  0.89565769  0.56086333     1.05200
Fe899      Fe  0.37639671  0.66139103  0.01327510     1.65800
Fe900      Fe  0.28076001  0.61465383  0.51707135     1.73200
Fe901      Fe  0.31989310  0.71003818  0.51065186     1.54400
O902        O  0.35930733  0.73600552  0.54923272    -0.79500
O903        O  0.25382739  0.63097013  0.98021535    -0.77800
O904        O  0.39858055  0.71378544  0.54298136    -0.82000
O905        O  0.39895777  0.69299516  0.96864108    -0.76800
O906        O  0.27926233  0.69017952  0.54887712    -0.78600
O907        O  0.29259099  0.59024951  0.97721735    -0.81300
C908        C  0.39623379  0.71894574  0.95338523     0.99400
C909        C  0.38913051  0.73603629  0.55693443     1.06900
O910        O  0.32536683  0.66489948  0.51155751    -1.10300
O911        O  0.30556804  0.59377304  0.55042789    -0.72700
O912        O  0.36660246  0.63305418  0.54734639    -0.76200
O913        O  0.37259249  0.72862613  0.96274584    -0.76900
C914        C  0.33867305  0.60411128  0.55978045     0.98300
O915        O  0.35411579  0.61356078  0.98155852    -0.74900
O916        O  0.26350101  0.63082404  0.56052028    -0.80100
C917        C  0.26055708  0.65829650  0.96055095     1.01000
C918        C  0.26179233  0.66023668  0.56667772     1.06900
O919        O  0.29070739  0.68977195  0.96250453    -0.75700
C920        C  0.32227346  0.59077315  0.96842268     1.05200
C921        C  0.45863257  0.99520728  0.62055031     0.04500
C922        C  0.45903720  0.96095062  0.62440047     0.04500
C923        C  0.00071978  0.96387016  0.62437115     0.04500
C924        C  0.03270635  0.99881898  0.61802148     0.04500
C925        C  0.03650230  0.52907491  0.62070663     0.04500
C926        C  0.00404148  0.53192599  0.62076427     0.04500
C927        C  0.30105587  0.97559610  0.63972260     0.82400
N928        N  0.30286991  0.49626989  0.64048375    -0.75900
C929        C  0.32815486  0.52334912  0.61877119     0.84900
N930        N  0.36136833  0.52515598  0.61290241    -0.75800
C931        C  0.36942661  0.50044728  0.62849782     0.85000
N932        N  0.33359762  0.97521037  0.63798308    -0.77500
C933        C  0.19392549  0.53035839  0.63993095     0.82400
N934        N  0.20204095  0.50444745  0.62632416    -0.75900
C935        C  0.17472303  0.98297784  0.60756473     0.84900
N936        N  0.14073937  0.97951077  0.60181206    -0.75800
C937        C  0.13208947  0.49373434  0.62080413     0.85000
N938        N  0.15906326  0.52477302  0.63687380    -0.77500
C939        C  0.19197628  0.67574946  0.61593504     0.82400
N940        N  0.18689383  0.70290803  0.63084585    -0.75900
C941        C  0.15305003  0.69395519  0.64434043     0.84900
N942        N  0.12438843  0.65803387  0.64223099    -0.75800
C943        C  0.12949084  0.63114665  0.62698664     0.85000
N944        N  0.16309117  0.63991189  0.61401662    -0.77500
C945        C  0.46758058  0.66676974  0.63812879     0.82400
N946        N  0.46995940  0.63488560  0.63672646    -0.75900
C947        C  0.49693088  0.63415102  0.61742973     0.84900
N948        N  0.03031484  0.66269524  0.60747273    -0.75800
C949        C  0.02844128  0.69482297  0.60796961     0.85000
N950        N  0.49213738  0.69778343  0.62028625    -0.77500
C951        C  0.30143977  0.82028964  0.60437527     0.82400
N952        N  0.33343556  0.85404969  0.60663808    -0.75900
C953        C  0.36291487  0.85765399  0.62529183     0.84900
N954        N  0.36041850  0.82712327  0.64203699    -0.75800
C955        C  0.32833477  0.79303802  0.63998000     0.85000
N956        N  0.29907065  0.78990716  0.62102028    -0.77500
C957        C  0.03832178  0.83397300  0.63607488     0.82400
N958        N  0.01132595  0.80361538  0.61864867    -0.75900
C959        C  0.47528266  0.80212291  0.61074044     0.84900
N960        N  0.47252305  0.83375087  0.61261010    -0.75800
C961        C  0.00798990  0.86798840  0.62242088     0.85000
N962        N  0.03655765  0.86621887  0.63792171    -0.77500
Fe963      Fe  0.33009150  0.60682034  0.75887463     1.65800
Fe964      Fe  0.29204479  0.66316719  0.74715199     1.73200
Fe965      Fe  0.38543037  0.70114519  0.75359996     1.54400
O966        O  0.40624401  0.67784859  0.78893854    -0.79500
O967        O  0.31385952  0.69933700  0.70469294    -0.77800
O968        O  0.36020602  0.62140810  0.80431698    -0.82000
O969        O  0.37689440  0.62025280  0.72941267    -0.76800
O970        O  0.37291745  0.72487489  0.79439930    -0.78600
O971        O  0.26709838  0.61782838  0.71165742    -0.81300
C972        C  0.39735467  0.64770728  0.70965475     0.99400
C973        C  0.39283734  0.64880674  0.80827185     1.06900
O974        O  0.33550418  0.65703637  0.75345696    -1.10300
O975        O  0.26404457  0.62796307  0.78890324    -0.72700
O976        O  0.28229511  0.58529073  0.78878793    -0.76200
O977        O  0.39984841  0.67972319  0.71226082    -0.76900
C978        C  0.26106854  0.59718778  0.79945273     0.98300
O979        O  0.29997659  0.58808166  0.71379865    -0.74900
O980        O  0.31419618  0.70974147  0.78142238    -0.80100
C981        C  0.34593613  0.72810030  0.70096960     1.01000
C982        C  0.34500553  0.72938508  0.79799781     1.06900
O983        O  0.37375501  0.73267899  0.71875269    -0.75700
C984        C  0.27479331  0.59301821  0.70051131     1.05200
Fe985      Fe  0.12357826  0.79719044  0.74702880     1.65800
Fe986      Fe  0.21685001  0.83448291  0.75890973     1.73200
Fe987      Fe  0.18033521  0.89190042  0.75519518     1.54400
O988        O  0.13885458  0.88088099  0.71892143    -0.79500
O989        O  0.23370572  0.86494080  0.80444437    -0.77800
O990        O  0.11246128  0.82042455  0.70427454    -0.82000
O991        O  0.09953818  0.81869487  0.78082061    -0.76800
O992        O  0.21771210  0.90846683  0.71461835    -0.78600
O993        O  0.18879828  0.78628540  0.78863593    -0.81300
C994        C  0.11060753  0.84869691  0.79879980     0.99400
C995        C  0.11683691  0.85303402  0.70010337     1.06900
O996        O  0.17339438  0.84100736  0.75396094    -1.10300
O997        O  0.20443622  0.80395873  0.71367383    -0.72700
O998        O  0.14227955  0.77096380  0.71260517    -0.76200
O999        O  0.14260498  0.87772958  0.79530058    -0.76900
C1000       C  0.17401444  0.77824785  0.70112867     0.98300
O1001       O  0.12846449  0.76831111  0.78877047    -0.74900
O1002       O  0.25104480  0.88152066  0.72947458    -0.80100
C1003       C  0.23950779  0.89791674  0.80959488     1.01000
C1004       C  0.24592451  0.90430900  0.71111995     1.06900
O1005       O  0.22354688  0.91196590  0.79167161    -0.75700
C1006       C  0.15570699  0.76506394  0.79925004     1.05200
C1007       C  0.46916721  0.49735094  0.87442785     0.04500
C1008       C  0.47014009  0.96566941  0.86893287     0.04500
C1009       C  0.00111983  0.96349472  0.86402752     0.04500
C1010       C  0.03526930  0.99805851  0.86322805     0.04500
C1011       C  0.03513232  0.53666376  0.87217161     0.04500
C1012       C  0.00141386  0.53723303  0.87030133     0.04500
C1013       C  0.19104750  0.51492377  0.85698546     0.82800
N1014       N  0.18840674  0.48437734  0.87398183    -0.75900
C1015       C  0.16207055  0.96410536  0.88868926     0.84900
N1016       N  0.13136388  0.96723492  0.88399333    -0.75800
C1017       C  0.12878605  0.49492696  0.87173090     0.85000
N1018       N  0.16104513  0.52002660  0.85610493    -0.77500
C1019       C  0.31033409  0.98215228  0.86309926     0.82400
N1020       N  0.31198497  0.50854639  0.88952343    -0.75900
C1021       C  0.34480484  0.53201234  0.90591724     0.84900
N1022       N  0.37483660  0.52793879  0.90041355    -0.75800
C1023       C  0.37238231  0.50044845  0.87907297     0.85000
N1024       N  0.34143999  0.97901679  0.86014059    -0.77500
C1025       C  0.47843341  0.66949587  0.86129726     0.82400
N1026       N  0.50744854  0.69967507  0.87670668    -0.75900
C1027       C  0.02515009  0.70073065  0.88759376     0.84900
N1028       N  0.02741388  0.66866343  0.88761884    -0.75800
C1029       C  0.50479400  0.63226816  0.87651098     0.85000
N1030       N  0.47711931  0.63570603  0.86119019    -0.77500
C1031       C  0.19753191  0.67367920  0.89680296     0.82400
N1032       N  0.16465158  0.64029563  0.89682976    -0.75900
C1033       C  0.13493677  0.63661423  0.87813272     0.84900
N1034       N  0.13819112  0.66634270  0.85951441    -0.75800
C1035       C  0.17097871  0.69957043  0.85951487     0.85000
N1036       N  0.20037242  0.70291949  0.87801842    -0.77500
C1037       C  0.02315544  0.82476068  0.85112481     0.82400
N1038       N  0.99474669  0.79450258  0.86709273    -0.75900
C1039       C  0.46053684  0.79939805  0.89061857     0.84900
N1040       N  0.46616427  0.83491510  0.88901323    -0.75800
C1041       C  0.99697572  0.86178946  0.86770733     0.85000
N1042       N  0.02408649  0.85830820  0.85150897    -0.77500
C1043       C  0.30735327  0.82960598  0.88536013     0.82400
N1044       N  0.30293160  0.80082459  0.86481800    -0.75900
C1045       C  0.33160334  0.80362356  0.84582740     0.84900
N1046       N  0.36536910  0.83595302  0.84706283    -0.75800
C1047       C  0.36995440  0.86545697  0.86722085     0.85000
N1048       N  0.34089919  0.86211674  0.88651618    -0.77500
C1049       C  0.00198801  0.57304673  0.87149532    -0.11000
C1050       C  0.50350963  0.59673045  0.87605350    -0.12600
C1051       C  0.10018422  0.60114819  0.87726823    -0.11000
C1052       C  0.07070936  0.57186984  0.87526369    -0.12600
C1053       C  0.43472814  0.92994507  0.86865358    -0.11000
C1054       C  0.40539369  0.90034496  0.86804580    -0.12600
C1055       C  0.40484866  0.49694849  0.87425719    -0.11000
C1056       C  0.43391144  0.49689050  0.87332185    -0.12600
C1057       C  0.07056437  0.99852692  0.86247363    -0.11000
C1058       C  0.09702458  0.49977799  0.87070702    -0.12600
C1059       C  0.00070218  0.92795362  0.86565190    -0.11000
C1060       C  0.99856032  0.89755597  0.86723823    -0.12600
C1061       C  0.17643002  0.73167074  0.83816082    -0.14200
C1062       C  0.14833124  0.73441067  0.82379338    -0.29400
H1063       H  0.20503993  0.75378503  0.83381648     0.14800
H1064       H  0.11961443  0.71319974  0.82913187     0.15400
C1065       C  0.08459686  0.85094669  0.82351284    -0.14200
C1066       C  0.05175470  0.82075175  0.83194682    -0.29400
H1067       H  0.09179606  0.87862856  0.83353159     0.14800
H1068       H  0.04513021  0.79273510  0.82351614     0.15400
C1069       C  0.26824106  0.92135436  0.83548861    -0.14200
C1070       C  0.27616655  0.95641751  0.84369796    -0.29400
H1071       H  0.28554907  0.91058101  0.84589704     0.14800
H1072       H  0.25809152  0.96695796  0.83496997     0.15400
C1073       C  0.45042022  0.67454247  0.84247136    -0.14200
C1074       C  0.41690720  0.64533248  0.83441833    -0.29400
H1075       H  0.45836503  0.70270048  0.83342573     0.14800
H1076       H  0.40828255  0.61755503  0.84498380     0.15400
C1077       C  0.23043238  0.57367641  0.82388821    -0.14200
C1078       C  0.22540751  0.54109834  0.83766854    -0.29400
H1079       H  0.21018471  0.58253209  0.82914430     0.14800
H1080       H  0.24605749  0.53257794  0.83333970     0.15400
C1081       C  0.32494584  0.77125811  0.82410305    -0.14200
C1082       C  0.35035608  0.76048986  0.82113723    -0.29400
H1083       H  0.29771030  0.75473711  0.81192102     0.14800
H1084       H  0.37689591  0.77634250  0.83475303     0.15400
C1085       C  0.06711024  0.83023699  0.65545548    -0.14200
C1086       C  0.09408269  0.85890297  0.67387528    -0.29400
H1087       H  0.06409603  0.80236362  0.65690460     0.14800
H1088       H  0.09717894  0.88679911  0.67226802     0.15400
C1089       C  0.35172842  0.75881155  0.67658141    -0.14200
C1090       C  0.32363975  0.75960009  0.65955531    -0.29400
H1091       H  0.37969485  0.78294401  0.67478609     0.14800
H1092       H  0.29569888  0.73538956  0.66109432     0.15400
C1093       C  0.41974993  0.64212439  0.68343573    -0.14200
C1094       C  0.44080474  0.66943956  0.66088614    -0.29400
H1095       H  0.42006716  0.61576835  0.68366252     0.14800
H1096       H  0.44039148  0.69575848  0.66074355     0.15400
C1097       C  0.14776573  0.72161920  0.66423252    -0.14200
C1098       C  0.17670425  0.75504914  0.67329095    -0.29400
H1099       H  0.12034134  0.71253242  0.67507998     0.14800
H1100       H  0.20432733  0.76358274  0.66324715     0.15400
C1101       C  0.22087346  0.56310786  0.66068422    -0.14200
C1102       C  0.25296535  0.56675612  0.67210356    -0.29400
H1103       H  0.21193080  0.58233152  0.67021957     0.14800
H1104       H  0.26137778  0.54684472  0.66336941     0.15400
C1105       C  0.27105639  0.95053536  0.66347910    -0.14200
C1106       C  0.27463416  0.92697164  0.68528091    -0.29400
H1107       H  0.24594729  0.95267714  0.66394638     0.14800
H1108       H  0.29963726  0.92465452  0.68469512     0.15400
C1109       C  0.07208735  0.56306769  0.62185401    -0.11000
C1110       C  0.09927800  0.59362184  0.62409386    -0.12600
C1111       C  0.50105217  0.57208513  0.61427571    -0.11000
C1112       C  0.49945821  0.60059558  0.61570934    -0.12600
C1113       C  0.09569728  0.48932031  0.61846934    -0.11000
C1114       C  0.06778994  0.00045755  0.61220738    -0.12600
C1115       C  0.00325346  0.92979988  0.62458837    -0.11000
C1116       C  0.00587279  0.90181132  0.62415043    -0.12600
C1117       C  0.42439278  0.92484391  0.62591003    -0.11000
C1118       C  0.39665689  0.89395546  0.62662522    -0.12600
C1119       C  0.39580221  0.99836158  0.61603665    -0.11000
C1120       C  0.42363861  0.99563936  0.61757047    -0.12600
C1121       C  0.31886686  0.56318994  0.94187021    -0.14200
C1122       C  0.34837270  0.56114072  0.93064518    -0.29400
H1123       H  0.29120688  0.54361513  0.93183137     0.14800
H1124       H  0.37595259  0.58039556  0.94103123     0.15400
C1125       C  0.31904916  0.54936900  0.59994191    -0.14200
C1126       C  0.34598122  0.58087046  0.58461901    -0.29400
H1127       H  0.28998368  0.54170384  0.59728763     0.14800
H1128       H  0.37499757  0.58884195  0.58863572     0.15400
C1129       C  0.23019544  0.67968884  0.91764921    -0.14200
C1130       C  0.23065830  0.65197328  0.93562445    -0.29400
H1131       H  0.25394054  0.70808953  0.91922870     0.14800
H1132       H  0.20672387  0.62367739  0.93408942     0.15400
C1133       C  0.42364497  0.73968595  0.92496312    -0.14200
C1134       C  0.42801366  0.77192915  0.91160804    -0.29400
H1135       H  0.44336519  0.73062880  0.91794220     0.14800
H1136       H  0.40883738  0.78126106  0.91987590     0.15400
C1137       C  0.23572494  0.65766879  0.59381396    -0.14200
C1138       C  0.22755145  0.68504807  0.59953314    -0.29400
H1139       H  0.21883480  0.63023511  0.60589333     0.14800
H1140       H  0.24472871  0.71306456  0.58876387     0.15400
C1141       C  0.41448130  0.76497710  0.58188145    -0.14200
C1142       C  0.44736881  0.76873197  0.59137174    -0.29400
H1143       H  0.40694297  0.78550921  0.59074017     0.14800
H1144       H  0.45468034  0.74774105  0.58355726     0.15400
C1145       C  0.05293964  0.73494818  0.90633057    -0.14200
C1146       C  0.08794689  0.74232467  0.91182531    -0.29400
H1147       H  0.04384486  0.75360065  0.91701888     0.14800
H1148       H  0.09712073  0.72427555  0.89981575     0.15400
C1149       C  0.08709176  0.73173872  0.57541283    -0.14200
C1150       C  0.05611248  0.72878058  0.58958950    -0.29400
H1151       H  0.09422215  0.70988806  0.57974616     0.14800
H1152       H  0.04959357  0.75116598  0.58596796     0.15400
C1153       C  0.15786792  0.93163275  0.90910993    -0.14200
C1154       C  0.18525501  0.93316016  0.92901593    -0.29400
H1155       H  0.13001583  0.90732575  0.91102269     0.14800
H1156       H  0.21262341  0.95833959  0.92853954     0.15400
C1157       C  0.27602580  0.82347986  0.90763842    -0.14200
C1158       C  0.27581763  0.85116563  0.92587368    -0.29400
H1159       H  0.25263001  0.79490601  0.90954593     0.14800
H1160       H  0.29851743  0.87998424  0.92305171     0.15400
C1161       C  0.15706663  0.92002602  0.58646761    -0.14200
C1162       C  0.18381301  0.95576453  0.59209581    -0.29400
H1163       H  0.12945791  0.90996783  0.59737010     0.14800
H1164       H  0.21201941  0.96597212  0.58280025     0.15400
C1165       C  0.26752122  0.84631228  0.57258997    -0.14200
C1166       C  0.26984767  0.81618251  0.58292111    -0.29400
H1167       H  0.28807638  0.87421557  0.58184442     0.14800
H1168       H  0.24850161  0.78801645  0.57511886     0.15400
Fe1169     Fe  0.71007984  0.37257903  0.01029761     1.65800
Fe1170     Fe  0.62754995  0.32390991  0.49329393     1.73200
Fe1171     Fe  0.67180464  0.27313379  0.48625080     1.54400
O1172       O  0.71970522  0.29576652  0.45590181    -0.79500
O1173       O  0.59859654  0.27968733  0.03949924    -0.77800
O1174       O  0.74536649  0.35811225  0.45910973    -0.82000
O1175       O  0.73534795  0.35042546  0.04373583    -0.76800
O1176       O  0.64090091  0.26189653  0.44118576    -0.78600
O1177       O  0.62854121  0.35985898  0.03734106    -0.81300
C1178       C  0.72875254  0.31746195  0.05245421     0.99400
C1179       C  0.74425449  0.32888628  0.44702748     1.06900
O1180       O  0.67367867  0.32153808  0.49372213    -1.10300
O1181       O  0.64771127  0.36373471  0.45381905    -0.72700
O1182       O  0.70767518  0.39939335  0.46910561    -0.76200
O1183       O  0.70310278  0.28792785  0.03817437    -0.76900
C1184       C  0.67948183  0.39342525  0.45087211     0.98300
O1185       O  0.68735440  0.38270779  0.05389562    -0.74900
O1186       O  0.60093322  0.28075977  0.45600350    -0.80100
C1187       C  0.60202930  0.25082893  0.04313167     1.01000
C1188       C  0.61001360  0.26077112  0.43740850     1.06900
O1189       O  0.62456280  0.24504955  0.02517556    -0.75700
C1190       C  0.65597276  0.38070251  0.05688751     1.05200
Fe1191     Fe  0.86855601  0.16643023  0.50483702     1.65800
Fe1192     Fe  0.77314173  0.11506495  0.00998718     1.73200
Fe1193     Fe  0.82247999  0.21035374  0.99819250     1.54400
O1194       O  0.86043287  0.23798131  0.03812577    -0.79500
O1195       O  0.74957980  0.12975283  0.46331751    -0.77800
O1196       O  0.89353741  0.20877071  0.04302632    -0.82000
O1197       O  0.89293573  0.20850850  0.46707308    -0.76800
O1198       O  0.77890528  0.19817688  0.03346021    -0.78600
O1199       O  0.79195592  0.09294041  0.46587667    -0.81300
C1200       C  0.88586461  0.23269588  0.45374847     0.99400
C1201       C  0.88769752  0.23567343  0.05053200     1.06900
O1202       O  0.82139588  0.16221719  0.00669227    -1.10300
O1203       O  0.78897972  0.09372762  0.05052325    -0.72700
O1204       O  0.85045390  0.12831707  0.05680218    -0.76200
O1205       O  0.85772180  0.23542084  0.46274699    -0.76900
C1206       C  0.81879931  0.10185181  0.06639574     0.98300
O1207       O  0.85395848  0.12700868  0.46470171    -0.74900
O1208       O  0.75372033  0.13715204  0.04629936    -0.80100
C1209       C  0.75201045  0.15967014  0.45151071     1.01000
C1210       C  0.75598258  0.16881806  0.05034182     1.06900
O1211       O  0.77599959  0.19226356  0.46261855    -0.75700
C1212       C  0.82310293  0.10031154  0.45331213     1.05200
C1213       C  0.97609440  0.50473950  0.11433711     0.04500
C1214       C  0.97660842  0.47062205  0.11432882     0.04500
C1215       C  0.51632616  0.47173037  0.13601687     0.04500
C1216       C  0.55171011  0.50443408  0.13685436     0.04500
C1217       C  0.53208812  0.03631535  0.11031776     0.04500
C1218       C  0.49762680  0.03366405  0.11834216     0.04500
C1219       C  0.81699560  0.47424269  0.14219085     0.82400
N1220       N  0.80600073  0.01329055  0.13671101    -0.75900
C1221       C  0.83945745  0.03943879  0.12320877     0.84900
N1222       N  0.86783907  0.03211972  0.12199733    -0.75800
C1223       C  0.86316153  0.99901413  0.13386156     0.85000
N1224       N  0.85035196  0.47614721  0.13874028    -0.77500
C1225       C  0.69336918  0.03667616  0.12415580     0.82400
N1226       N  0.69881614  0.00862146  0.11220982    -0.75900
C1227       C  0.67807862  0.46387342  0.11711120     0.84900
N1228       N  0.64639621  0.46619079  0.11646551    -0.75800
C1229       C  0.63331324  0.00641606  0.09992875     0.85000
N1230       N  0.66074108  0.03553137  0.11783537    -0.77500
C1231       C  0.68458530  0.18712026  0.09568209     0.82400
N1232       N  0.68201969  0.21330089  0.11553858    -0.75900
C1233       C  0.64977274  0.20384493  0.13292471     0.84900
N1234       N  0.62024401  0.16839518  0.12997212    -0.75800
C1235       C  0.62262951  0.14240666  0.10993895     0.85000
N1236       N  0.65477341  0.15168272  0.09314236    -0.77500
C1237       C  0.96350306  0.16755205  0.13393615     0.82400
N1238       N  0.96295826  0.13408281  0.13431515    -0.75900
C1239       C  0.98864641  0.12969356  0.11622883     0.84900
N1240       N  0.52358421  0.16135526  0.10935481    -0.75800
C1241       C  0.52648197  0.19578091  0.11049328     0.85000
N1242       N  0.99002280  0.19672273  0.11524162    -0.77500
C1243       C  0.81428621  0.33914153  0.11042075     0.82400
N1244       N  0.84771404  0.37124268  0.10932006    -0.75900
C1245       C  0.87828844  0.37289798  0.12340474     0.84900
N1246       N  0.87588004  0.34251776  0.13939012    -0.75800
C1247       C  0.84294486  0.30986971  0.14144365     0.85000
N1248       N  0.81150647  0.30773405  0.12660022    -0.77500
C1249       C  0.52442277  0.32580905  0.15047246     0.82400
N1250       N  0.49358374  0.29711789  0.13459803    -0.75900
C1251       C  0.97646086  0.30323984  0.10242092     0.84900
N1252       N  0.97826681  0.33733113  0.10026275    -0.75800
C1253       C  0.50446783  0.36810007  0.13434533     0.85000
N1254       N  0.52945624  0.36110452  0.14995487    -0.77500
Fe1255     Fe  0.82302677  0.10597365  0.25384969     1.65800
Fe1256     Fe  0.77431656  0.15211389  0.24233427     1.73200
Fe1257     Fe  0.86932515  0.20120414  0.24332547     1.54400
O1258       O  0.89824920  0.18549157  0.27881014    -0.79500
O1259       O  0.78908616  0.18896162  0.20120943    -0.77800
O1260       O  0.85850452  0.12716612  0.29617729    -0.82000
O1261       O  0.86736089  0.12260430  0.21986738    -0.76800
O1262       O  0.85301092  0.22211686  0.28443629    -0.78600
O1263       O  0.75517101  0.10963726  0.20579049    -0.81300
C1264       C  0.88720348  0.15048324  0.20014398     0.99400
C1265       C  0.88993256  0.15703453  0.29812487     1.06900
O1266       O  0.82209081  0.15307696  0.24646038    -1.10300
O1267       O  0.74967832  0.11491438  0.28247830    -0.72700
O1268       O  0.77829228  0.08174732  0.28862128    -0.76200
O1269       O  0.88766895  0.18174460  0.20224025    -0.76900
C1270       C  0.75251438  0.08862063  0.29648878     0.98300
O1271       O  0.78839805  0.08055854  0.21179447    -0.74900
O1272       O  0.79083460  0.19481516  0.27869476    -0.80100
C1273       C  0.81876666  0.21847790  0.19323351     1.01000
C1274       C  0.82149752  0.21777964  0.29347971     1.06900
O1275       O  0.84989427  0.22662249  0.20728139    -0.75700
C1276       C  0.76388799  0.08525016  0.19642657     1.05200
Fe1277     Fe  0.62887335  0.29829623  0.25293449     1.65800
Fe1278     Fe  0.72347389  0.34761073  0.24833041     1.73200
Fe1279     Fe  0.67582878  0.39424363  0.25972865     1.54400
O1280       O  0.62944349  0.37583432  0.22719012    -0.79500
O1281       O  0.74604857  0.38011330  0.29194486    -0.77800
O1282       O  0.60673861  0.31517123  0.21349241    -0.82000
O1283       O  0.60304929  0.31490059  0.29027106    -0.76800
O1284       O  0.70830064  0.41855774  0.21630508    -0.78600
O1285       O  0.70733657  0.30096532  0.27997914    -0.81300
C1286       C  0.61213628  0.34461820  0.30801571     0.99400
C1287       C  0.60751575  0.34627751  0.20983582     1.06900
O1288       O  0.67605032  0.34677277  0.25370113    -1.10300
O1289       O  0.70633969  0.31551385  0.20378938    -0.72700
O1290       O  0.64680502  0.27455407  0.21467729    -0.76200
O1291       O  0.64259007  0.37502999  0.30341496    -0.76900
C1292       C  0.67624384  0.28578605  0.19660061     0.98300
O1293       O  0.64708270  0.27724267  0.29238922    -0.74900
O1294       O  0.74586711  0.39434972  0.21627516    -0.80100
C1295       C  0.74609975  0.40910086  0.30334879     1.01000
C1296       C  0.73624744  0.41732898  0.20473943     1.06900
O1297       O  0.72303666  0.41899486  0.29267977    -0.75700
C1298       C  0.67817402  0.27868794  0.29686578     1.05200
C1299       C  0.96764789  0.00188530  0.35547452     0.04500
C1300       C  0.97317923  0.45910454  0.38044469     0.04500
C1301       C  0.50064428  0.46191263  0.37780716     0.04500
C1302       C  0.53453603  0.49657289  0.37836378     0.04500
C1303       C  0.52716388  0.02864006  0.37306989     0.04500
C1304       C  0.49346335  0.02942131  0.37356291     0.04500
C1305       C  0.68376736  0.00660184  0.35469553     0.82800
N1306       N  0.68176938  0.97676344  0.37224337    -0.75900
C1307       C  0.65908816  0.45779633  0.39360743     0.84900
N1308       N  0.62911003  0.46262810  0.39166569    -0.75800
C1309       C  0.62149503  0.98646828  0.37032520     0.85000
N1310       N  0.65344339  0.01133803  0.35390295    -0.77500
C1311       C  0.81897293  0.49018574  0.36052208     0.82400
N1312       N  0.81642700  0.02467291  0.36930169    -0.75900
C1313       C  0.84937292  0.04795864  0.38578205     0.84900
N1314       N  0.87904368  0.04284328  0.38092118    -0.75800
C1315       C  0.87588285  0.01458519  0.35999631     0.85000
N1316       N  0.84758814  0.48272156  0.36047252    -0.77500
C1317       C  0.98224957  0.17801898  0.34271393     0.82400
N1318       N  0.01325486  0.20676324  0.35827621    -0.75900
C1319       C  0.51945427  0.19345400  0.38838039     0.84900
N1320       N  0.52036043  0.16069814  0.38766095    -0.75800
C1321       C  0.00595046  0.13715624  0.35326085     0.85000
N1322       N  0.97873519  0.14314880  0.34055461    -0.77500
C1323       C  0.68495989  0.17347261  0.39185688     0.82400
N1324       N  0.65457015  0.13816179  0.39206340    -0.75900
C1325       C  0.62326676  0.13073749  0.37419463     0.84900
N1326       N  0.62218813  0.15851562  0.35609957    -0.75800
C1327       C  0.65231318  0.19365187  0.35542012     0.85000
N1328       N  0.68369106  0.20119839  0.37348585    -0.77500
C1329       C  0.52230221  0.32186574  0.35670435     0.82400
N1330       N  0.49228890  0.29187423  0.37145910    -0.75900
C1331       C  0.97170033  0.29212670  0.39436056     0.84900
N1332       N  0.97478409  0.32679635  0.39614501    -0.75800
C1333       C  0.49779861  0.36074626  0.37272247     0.85000
N1334       N  0.52489289  0.35631911  0.35742477    -0.77500
C1335       C  0.81510598  0.31558589  0.39492432     0.82400
N1336       N  0.81678093  0.28851355  0.37593877    -0.75900
C1337       C  0.84920289  0.29591787  0.36037430     0.84900
N1338       N  0.87994009  0.33024461  0.36415098    -0.75800
C1339       C  0.87841162  0.35728240  0.38313786     0.85000
N1340       N  0.84604728  0.35014494  0.39834894    -0.77500
C1341       C  0.49383076  0.06529457  0.37297134    -0.11000
C1342       C  0.00261609  0.10063141  0.35218186    -0.12600
C1343       C  0.59097702  0.09373275  0.37444526    -0.11000
C1344       C  0.56247240  0.06373439  0.37377161    -0.12600
C1345       C  0.93870573  0.42393256  0.38391245    -0.11000
C1346       C  0.91057076  0.39390654  0.38509355    -0.12600
C1347       C  0.90671883  0.00801159  0.35616904    -0.11000
C1348       C  0.93331852  0.00344773  0.35453368    -0.12600
C1349       C  0.56996766  0.49742851  0.37562836    -0.11000
C1350       C  0.58938951  0.99127020  0.36994895    -0.12600
C1351       C  0.50093307  0.42671843  0.37514057    -0.11000
C1352       C  0.50033658  0.39700922  0.37352164    -0.12600
C1353       C  0.65036753  0.22252228  0.33420229    -0.14200
C1354       C  0.68086837  0.25302264  0.32215018    -0.29400
H1355       H  0.62292535  0.21676162  0.32578335     0.14800
H1356       H  0.70837098  0.25769086  0.32887416     0.15400
C1357       C  0.58556751  0.34567274  0.33320881    -0.14200
C1358       C  0.55090267  0.31663048  0.33838627    -0.29400
H1359       H  0.59358425  0.37274063  0.34527342     0.14800
H1360       H  0.54276368  0.28902725  0.32758489     0.15400
C1361       C  0.77604852  0.43210128  0.32870671    -0.14200
C1362       C  0.78448271  0.46651930  0.33997569    -0.29400
H1363       H  0.79400655  0.42102779  0.33638895     0.14800
H1364       H  0.76652613  0.47786835  0.33332070     0.15400
C1365       C  0.95335860  0.18472421  0.32633583    -0.14200
C1366       C  0.91805192  0.15621364  0.32188518    -0.29400
H1367       H  0.96169771  0.21250875  0.31604969     0.14800
H1368       H  0.91013705  0.12916988  0.33381522     0.15400
C1369       C  0.72276558  0.06481339  0.32146746    -0.14200
C1370       C  0.71820331  0.03270885  0.33540056    -0.29400
H1371       H  0.70177249  0.07278074  0.32631498     0.14800
H1372       H  0.73921546  0.02471634  0.33131023     0.15400
C1373       C  0.85078829  0.26869187  0.33666988    -0.14200
C1374       C  0.81987086  0.24079581  0.32204574    -0.29400
H1375       H  0.87808484  0.27414078  0.32827849     0.14800
H1376       H  0.79265040  0.23632431  0.32950709     0.15400
C1377       C  0.55188911  0.31953715  0.16993959    -0.14200
C1378       C  0.58174149  0.34914999  0.18514385    -0.29400
H1379       H  0.54658669  0.29100083  0.17362522     0.14800
H1380       H  0.58650916  0.37748988  0.18134575     0.15400
C1381       C  0.81549539  0.24461524  0.16791354    -0.14200
C1382       C  0.84404260  0.27928026  0.16168325    -0.29400
H1383       H  0.78839157  0.23628182  0.15652075     0.14800
H1384       H  0.87075520  0.28693097  0.17365696     0.15400
C1385       C  0.91096130  0.14526903  0.17475774    -0.14200
C1386       C  0.93689147  0.17316513  0.15517611    -0.29400
H1387       H  0.90829884  0.11751778  0.17378101     0.14800
H1388       H  0.93990824  0.20105833  0.15607509     0.15400
C1389       C  0.64720405  0.22996337  0.15788717    -0.14200
C1390       C  0.67678833  0.26312918  0.16677040    -0.29400
H1391       H  0.62094589  0.22011246  0.17149115     0.14800
H1392       H  0.70314508  0.27286663  0.15336646     0.15400
C1393       C  0.72009878  0.06584736  0.14759881    -0.14200
C1394       C  0.74403880  0.06044445  0.16685852    -0.29400
H1395       H  0.71650338  0.08996755  0.15255374     0.14800
H1396       H  0.74726105  0.03601623  0.16241583     0.15400
C1397       C  0.78942803  0.44472603  0.16497017    -0.14200
C1398       C  0.75915005  0.44451885  0.17748146    -0.29400
H1399       H  0.79619020  0.42368151  0.17394301     0.14800
H1400       H  0.75243614  0.46578780  0.16923333     0.15400
C1401       C  0.56531944  0.07311175  0.10801322    -0.11000
C1402       C  0.59180100  0.10459708  0.10803277    -0.12600
C1403       C  0.98748358  0.06434710  0.11951779    -0.11000
C1404       C  0.98779628  0.09401781  0.11747987    -0.12600
C1405       C  0.59815170  0.00477480  0.09670144    -0.11000
C1406       C  0.58508687  0.50133448  0.13437765    -0.12600
C1407       C  0.51356994  0.43563025  0.13451914    -0.11000
C1408       C  0.51009354  0.40497868  0.13421381    -0.12600
C1409       C  0.94222734  0.43553338  0.11786716    -0.11000
C1410       C  0.91323754  0.40668555  0.12082510    -0.12600
C1411       C  0.91237157  0.50478064  0.11643972    -0.11000
C1412       C  0.94114085  0.50443543  0.11546599    -0.12600
C1413       C  0.82207538  0.07581770  0.42442714    -0.14200
C1414       C  0.85248065  0.07665388  0.41124573    -0.29400
H1415       H  0.79468477  0.05471290  0.41498849     0.14800
H1416       H  0.87990297  0.09676181  0.42136913     0.15400
C1417       C  0.84465880  0.07377308  0.10596080    -0.14200
C1418       C  0.81560371  0.07705806  0.09553742    -0.29400
H1419       H  0.87238882  0.09348481  0.09637907     0.14800
H1420       H  0.78766784  0.05627966  0.10377410     0.15400
C1421       C  0.71852043  0.18217058  0.41279842    -0.14200
C1422       C  0.72371308  0.15447029  0.42508665    -0.29400
H1423       H  0.73819373  0.21129336  0.41934306     0.14800
H1424       H  0.70411551  0.12555064  0.41756414     0.15400
C1425       C  0.91229933  0.26063709  0.42808398    -0.14200
C1426       C  0.94236260  0.26011370  0.41494227    -0.29400
H1427       H  0.90787299  0.28385002  0.42126926     0.14800
H1428       H  0.94631789  0.23634176  0.42041870     0.15400
C1429       C  0.72848057  0.16877929  0.07471696    -0.14200
C1430       C  0.71965971  0.19599638  0.07773528    -0.29400
H1431       H  0.71133353  0.14234445  0.08838363     0.14800
H1432       H  0.73654323  0.22322415  0.06548755     0.15400
C1433       C  0.91474195  0.26714725  0.07299517    -0.14200
C1434       C  0.94632946  0.26927318  0.08495445    -0.29400
H1435       H  0.90987768  0.29051889  0.07757732     0.14800
H1436       H  0.95088147  0.24560259  0.08107833     0.15400
C1437       C  0.54851497  0.22700337  0.40723629    -0.14200
C1438       C  0.58304559  0.23262469  0.41236827    -0.29400
H1439       H  0.54087662  0.24672328  0.41809122     0.14800
H1440       H  0.59073697  0.21348895  0.40017916     0.15400
C1441       C  0.57810916  0.22210285  0.06851902    -0.14200
C1442       C  0.55431773  0.22664367  0.08905667    -0.29400
H1443       H  0.57898214  0.19604831  0.06919488     0.14800
H1444       H  0.55376925  0.25287836  0.08869714     0.15400
C1445       C  0.65518037  0.42488790  0.41296359    -0.14200
C1446       C  0.68436672  0.42326326  0.42614605    -0.29400
H1447       H  0.62708890  0.40292730  0.41944807     0.14800
H1448       H  0.71247007  0.44620477  0.42132638     0.15400
C1449       C  0.78007259  0.30715086  0.41217802    -0.14200
C1450       C  0.77463022  0.33498624  0.42339326    -0.29400
H1451       H  0.75928903  0.27795535  0.41691018     0.14800
H1452       H  0.79524771  0.36405298  0.41761047     0.15400
C1453       C  0.65126612  0.40515524  0.08225259    -0.14200
C1454       C  0.68058511  0.43375252  0.09839838    -0.29400
H1455       H  0.62381980  0.40226695  0.08456146     0.14800
H1456       H  0.70806662  0.43674025  0.09592920     0.15400
C1457       C  0.75262653  0.31212317  0.07875254    -0.14200
C1458       C  0.78326800  0.34121447  0.09259825    -0.29400
H1459       H  0.74706312  0.28374805  0.08385279     0.14800
H1460       H  0.78886018  0.36943307  0.08630318     0.15400
Fe1461     Fe  0.72141710  0.36754788  0.50158429     1.65800
Fe1462     Fe  0.61632558  0.31838032  0.00025820     1.73200
Fe1463     Fe  0.67074198  0.27838450  0.99414805     1.54400
O1464       O  0.71786970  0.30690150  0.96282907    -0.79500
O1465       O  0.60497972  0.28416480  0.53265965    -0.77800
O1466       O  0.73822875  0.36844402  0.96784134    -0.82000
O1467       O  0.74026248  0.34077931  0.53463676    -0.76800
O1468       O  0.63870633  0.26272850  0.94921643    -0.78600
O1469       O  0.64602992  0.36725864  0.53073318    -0.81300
C1470       C  0.72934178  0.30723553  0.54450801     0.99400
C1471       C  0.74004534  0.34110017  0.95449419     1.06900
O1472       O  0.66596555  0.32321518  0.00140511    -1.10300
O1473       O  0.63158344  0.35736649  0.96152749    -0.72700
O1474       O  0.68955167  0.40030165  0.97786620    -0.76200
O1475       O  0.70207080  0.27870118  0.53065194    -0.76900
C1476       C  0.65975422  0.39014462  0.95992222     0.98300
O1477       O  0.70389595  0.38309471  0.54535532    -0.74900
O1478       O  0.59446747  0.27613983  0.96239811    -0.80100
C1479       C  0.60357888  0.25243079  0.53436747     1.01000
C1480       C  0.60710059  0.25950238  0.94362989     1.06900
O1481       O  0.62413219  0.24422929  0.51606615    -0.75700
C1482       C  0.67516073  0.38583927  0.54949022     1.05200
Fe1483     Fe  0.86810684  0.16067450  0.01177669     1.65800
Fe1484     Fe  0.77314150  0.11550552  0.50315373     1.73200
Fe1485     Fe  0.81717460  0.21175998  0.50155273     1.54400
O1486       O  0.85775175  0.23748951  0.54001425    -0.79500
O1487       O  0.74891600  0.12833099  0.97013472    -0.77800
O1488       O  0.88923939  0.20654759  0.54463366    -0.82000
O1489       O  0.89182473  0.19268049  0.96763304    -0.76800
O1490       O  0.77638493  0.19448010  0.54052843    -0.78600
O1491       O  0.78772228  0.08825072  0.97371504    -0.81300
C1492       C  0.88982988  0.21939540  0.95309552     0.99400
C1493       C  0.88325775  0.23295484  0.55368511     1.06900
O1494       O  0.81971971  0.16471084  0.50319767    -1.10300
O1495       O  0.78959401  0.09417003  0.54345835    -0.72700
O1496       O  0.85155239  0.12471023  0.54319003    -0.76200
O1497       O  0.86602714  0.22890135  0.96211276    -0.76900
C1498       C  0.82035042  0.09949633  0.55526495     0.98300
O1499       O  0.84908618  0.11302103  0.98017165    -0.74900
O1500       O  0.74805891  0.13178065  0.53986170    -0.80100
C1501       C  0.75666280  0.15659713  0.95139918     1.01000
C1502       C  0.75131741  0.16228858  0.55125966     1.06900
O1503       O  0.78505606  0.18880329  0.95674694    -0.75700
C1504       C  0.81798480  0.08941775  0.96640302     1.05200
C1505       C  0.96903757  0.49922378  0.62145703     0.04500
C1506       C  0.96666100  0.46386151  0.62405436     0.04500
C1507       C  0.50246860  0.46877708  0.61215651     0.04500
C1508       C  0.53621264  0.50323949  0.61132175     0.04500
C1509       C  0.52701844  0.03016535  0.62223407     0.04500
C1510       C  0.49272612  0.02975818  0.61982412     0.04500
C1511       C  0.81430454  0.47657854  0.64965822     0.82400
N1512       N  0.81322375  0.01808095  0.63533580    -0.75900
C1513       C  0.84467098  0.04036757  0.61643131     0.84900
N1514       N  0.87342480  0.03344141  0.61717631    -0.75800
C1515       C  0.87112178  0.00459730  0.63628526     0.85000
N1516       N  0.84747559  0.47840307  0.64513038    -0.77500
C1517       C  0.68525015  0.00827630  0.64581130     0.82400
N1518       N  0.68443200  0.98048581  0.62533247    -0.75900
C1519       C  0.65582316  0.45691973  0.59778163     0.84900
N1520       N  0.62748461  0.46440032  0.59628281    -0.75800
C1521       C  0.62370206  0.98976215  0.62771438     0.85000
N1522       N  0.65468850  0.01269944  0.64670423    -0.77500
C1523       C  0.68261396  0.17776775  0.60665297     0.82400
N1524       N  0.67932382  0.20560331  0.62295701    -0.75900
C1525       C  0.64656915  0.19748720  0.63869487     0.84900
N1526       N  0.61739397  0.16175101  0.63781437    -0.75800
C1527       C  0.62048968  0.13410226  0.62160115     0.85000
N1528       N  0.65297191  0.14207541  0.60614138    -0.77500
C1529       C  0.96081218  0.16168347  0.63045526     0.82400
N1530       N  0.96236081  0.12944041  0.63355831    -0.75900
C1531       C  0.99017626  0.12653291  0.61788613     0.84900
N1532       N  0.52016972  0.15933020  0.59580525    -0.75800
C1533       C  0.52085398  0.19287361  0.59461088     0.85000
N1534       N  0.98728301  0.19086248  0.61176086    -0.77500
C1535       C  0.80706405  0.32972583  0.60844807     0.82400
N1536       N  0.83802234  0.36359075  0.61326808    -0.75900
C1537       C  0.86960678  0.36570589  0.62515299     0.84900
N1538       N  0.87068896  0.33407067  0.63230282    -0.75800
C1539       C  0.83978684  0.29991582  0.62819834     0.85000
N1540       N  0.80766389  0.29751153  0.61603430    -0.77500
C1541       C  0.52636959  0.33203959  0.63741074     0.82400
N1542       N  0.49979546  0.30183470  0.61942192    -0.75900
C1543       C  0.96476983  0.29382585  0.61658187     0.84900
N1544       N  0.96572881  0.32746620  0.61499739    -0.75800
C1545       C  0.50144475  0.36880365  0.61650495     0.85000
N1546       N  0.52710894  0.36552838  0.63579960    -0.77500
Fe1547     Fe  0.82383945  0.11438658  0.75210414     1.65800
Fe1548     Fe  0.78021538  0.16645824  0.74723407     1.73200
Fe1549     Fe  0.87359216  0.20794027  0.73105467     1.54400
O1550       O  0.90273280  0.19825724  0.76991941    -0.79500
O1551       O  0.78872905  0.19395249  0.70042589    -0.77800
O1552       O  0.86733459  0.13932934  0.78937050    -0.82000
O1553       O  0.86162815  0.12127870  0.71364842    -0.76800
O1554       O  0.86715674  0.24244330  0.76600597    -0.78600
O1555       O  0.74871307  0.11651877  0.72039893    -0.81300
C1556       C  0.88308657  0.14734412  0.69317988     0.99400
C1557       C  0.89682806  0.17184366  0.79092686     1.06900
O1558       O  0.82591729  0.16295185  0.74348207    -1.10300
O1559       O  0.76466815  0.13934982  0.79436115    -0.72700
O1560       O  0.78502898  0.09849878  0.79172722    -0.76200
O1561       O  0.88720569  0.18009175  0.69436622    -0.76900
C1562       C  0.76492255  0.11044694  0.80527384     0.98300
O1563       O  0.78043667  0.08582999  0.71533235    -0.74900
O1564       O  0.80615506  0.21679886  0.77466979    -0.80100
C1565       C  0.81728517  0.21607281  0.68305495     1.01000
C1566       C  0.83959129  0.24273675  0.77979245     1.06900
O1567       O  0.84996113  0.22324414  0.69125804    -0.75700
C1568       C  0.75221290  0.08951867  0.70840698     1.05200
Fe1569     Fe  0.61736813  0.29762761  0.74588796     1.65800
Fe1570     Fe  0.71173724  0.34229803  0.74975556     1.73200
Fe1571     Fe  0.66716507  0.39198941  0.75830260     1.54400
O1572       O  0.62107902  0.37758085  0.72659337    -0.79500
O1573       O  0.73117061  0.37177934  0.79589980    -0.77800
O1574       O  0.60206567  0.32009236  0.70568132    -0.82000
O1575       O  0.59134179  0.31432335  0.78302256    -0.76800
O1576       O  0.70000923  0.41499563  0.71521576    -0.78600
O1577       O  0.68935317  0.29201359  0.77855806    -0.81300
C1578       C  0.60268392  0.34189234  0.80437170     0.99400
C1579       C  0.60182710  0.35085550  0.70538933     1.06900
O1580       O  0.66550683  0.34385584  0.75132822    -1.10300
O1581       O  0.69795862  0.31299454  0.70338307    -0.72700
O1582       O  0.63690035  0.27420459  0.70875480    -0.76200
O1583       O  0.63421941  0.37153690  0.80172361    -0.76900
C1584       C  0.66799118  0.28414482  0.69397068     0.98300
O1585       O  0.62854561  0.27110401  0.78519943    -0.74900
O1586       O  0.73863121  0.39197330  0.72031482    -0.80100
C1587       C  0.73458215  0.40331550  0.80397538     1.01000
C1588       C  0.72943662  0.41475404  0.70685169     1.06900
O1589       O  0.71426049  0.41511155  0.79044556    -0.75700
C1590       C  0.65745958  0.26904920  0.79143867     1.05200
C1591       C  0.96710657  0.99781125  0.86538391     0.04500
C1592       C  0.96615337  0.46802023  0.86762003     0.04500
C1593       C  0.50374701  0.46375743  0.87636616     0.04500
C1594       C  0.53790197  0.49815871  0.87785117     0.04500
C1595       C  0.53896703  0.03480117  0.86736487     0.04500
C1596       C  0.50473234  0.03465781  0.86793563     0.04500
C1597       C  0.70087878  0.02696605  0.86188054     0.82800
N1598       N  0.70270910  0.99895225  0.87862238    -0.75900
C1599       C  0.67651630  0.47647062  0.90571444     0.84900
N1600       N  0.64294021  0.47521996  0.90501374    -0.75800
C1601       C  0.63699198  0.99831011  0.87537917     0.85000
N1602       N  0.66793111  0.02664040  0.86019512    -0.77500
C1603       C  0.81002374  0.49024436  0.85232551     0.82400
N1604       N  0.80923430  0.00586430  0.89045703    -0.75900
C1605       C  0.84232620  0.03027583  0.90597695     0.84900
N1606       N  0.87283084  0.02724980  0.89945329    -0.75800
C1607       C  0.87044862  0.99983566  0.87797849     0.85000
N1608       N  0.83976373  0.48478525  0.84971009    -0.77500
C1609       C  0.96257116  0.15874976  0.85429716     0.82400
N1610       N  0.98907986  0.19201569  0.86921354    -0.75900
C1611       C  0.52342879  0.19543494  0.88517140     0.84900
N1612       N  0.52698141  0.16416874  0.88433328    -0.75800
C1613       C  0.99780455  0.13042405  0.87019639     0.85000
N1614       N  0.96724243  0.12836901  0.85536076    -0.77500
C1615       C  0.70004311  0.17315960  0.88203674     0.82400
N1616       N  0.66701626  0.14011919  0.88211855    -0.75900
C1617       C  0.63769153  0.13631280  0.86293781     0.84900
N1618       N  0.64140426  0.16602248  0.84376189    -0.75800
C1619       C  0.67462133  0.19911964  0.84356422     0.85000
N1620       N  0.70363283  0.20233928  0.86264739    -0.77500
C1621       C  0.51699724  0.31949599  0.85841920     0.82400
N1622       N  0.48686848  0.29105047  0.87482318    -0.75900
C1623       C  0.95547135  0.30124725  0.89281645     0.84900
N1624       N  0.96115663  0.33669489  0.88948563    -0.75800
C1625       C  0.49671666  0.36172045  0.87425432     0.85000
N1626       N  0.52170621  0.35475607  0.85843505    -0.77500
C1627       C  0.80376643  0.33099361  0.88755006     0.82400
N1628       N  0.79932309  0.30303673  0.86568980    -0.75900
C1629       C  0.82712089  0.30754187  0.84419010     0.84900
N1630       N  0.86015579  0.34055916  0.84467781    -0.75800
C1631       C  0.86506554  0.36897122  0.86650928     0.85000
N1632       N  0.83678807  0.36418147  0.88800046    -0.77500
C1633       C  0.50479030  0.07005165  0.86798238    -0.11000
C1634       C  0.00146140  0.09733723  0.87015883    -0.12600
C1635       C  0.60279524  0.10081590  0.86355234    -0.11000
C1636       C  0.57412708  0.07063617  0.86522354    -0.12600
C1637       C  0.93034746  0.43278586  0.86711534    -0.11000
C1638       C  0.90044555  0.40384315  0.86704576    -0.12600
C1639       C  0.90324742  0.99755700  0.87122689    -0.11000
C1640       C  0.93211831  0.99757468  0.86761192    -0.12600
C1641       C  0.57317129  0.49815225  0.88052155    -0.11000
C1642       C  0.60223568  0.99846092  0.87328136    -0.12600
C1643       C  0.50380688  0.42877797  0.87551509    -0.11000
C1644       C  0.50183185  0.39864561  0.87453233    -0.12600
C1645       C  0.68041427  0.23186715  0.82274626    -0.14200
C1646       C  0.65231181  0.23729063  0.81352696    -0.29400
H1647       H  0.70882545  0.25272149  0.81590885     0.14800
H1648       H  0.62416044  0.21716477  0.82182135     0.15400
C1649       C  0.57787417  0.34178021  0.83191236    -0.14200
C1650       C  0.54365884  0.31266196  0.83862937    -0.29400
H1651       H  0.58709544  0.36853605  0.84518274     0.14800
H1652       H  0.53429113  0.28508757  0.82712728     0.15400
C1653       C  0.76543574  0.42788423  0.82786651    -0.14200
C1654       C  0.77389394  0.46324393  0.83605063    -0.29400
H1655       H  0.78408917  0.41784359  0.83608199     0.14800
H1656       H  0.75493762  0.47328338  0.82901330     0.15400
C1657       C  0.92842364  0.15352508  0.83608140    -0.14200
C1658       C  0.92702475  0.18028700  0.81704619    -0.29400
H1659       H  0.90547169  0.12475114  0.83373284     0.14800
H1660       H  0.95085133  0.20869471  0.81765549     0.15400
C1661       C  0.73796270  0.08808858  0.83262260    -0.14200
C1662       C  0.73397834  0.05513653  0.84311491    -0.29400
H1663       H  0.71796520  0.09636657  0.84085235     0.14800
H1664       H  0.75453312  0.04727671  0.83582225     0.15400
C1665       C  0.82031094  0.27607943  0.82084486    -0.14200
C1666       C  0.84731281  0.27500220  0.80254465    -0.29400
H1667       H  0.79197774  0.25246179  0.81944270     0.14800
H1668       H  0.87586717  0.29805509  0.80463909     0.15400
C1669       C  0.55313089  0.32779577  0.65963911    -0.14200
C1670       C  0.57773074  0.35593839  0.68027673    -0.29400
H1671       H  0.55135589  0.30043689  0.66022922     0.14800
H1672       H  0.57908192  0.38310674  0.68005588     0.15400
C1673       C  0.81217394  0.23709586  0.65436718    -0.14200
C1674       C  0.84172809  0.26711054  0.64064145    -0.29400
H1675       H  0.78442321  0.23300802  0.65017225     0.14800
H1676       H  0.86949712  0.27177642  0.64607524     0.15400
C1677       C  0.90561230  0.13940150  0.66847088    -0.14200
C1678       C  0.93257769  0.16675523  0.64917151    -0.29400
H1679       H  0.90234535  0.11138608  0.66870307     0.14800
H1680       H  0.93579864  0.19475135  0.64897286     0.15400
C1681       C  0.64231531  0.22568953  0.65921640    -0.14200
C1682       C  0.67061437  0.26035959  0.66620627    -0.29400
H1683       H  0.61555870  0.21612960  0.67176341     0.14800
H1684       H  0.69764643  0.26979259  0.65429510     0.15400
C1685       C  0.71913829  0.03357561  0.66711269    -0.14200
C1686       C  0.72071950  0.06215330  0.68608241    -0.29400
H1687       H  0.74271264  0.02887184  0.66702976     0.14800
H1688       H  0.69698047  0.06660249  0.68508087     0.15400
C1689       C  0.78713840  0.44681988  0.67270886    -0.14200
C1690       C  0.75412031  0.44303258  0.68110366    -0.29400
H1691       H  0.79550463  0.42792108  0.68421367     0.14800
H1692       H  0.74563400  0.46199899  0.66999049     0.15400
C1693       C  0.56168299  0.06580572  0.62136132    -0.11000
C1694       C  0.58928649  0.09649256  0.62104114    -0.12600
C1695       C  0.99405528  0.06445406  0.62297084    -0.11000
C1696       C  0.99199170  0.09268318  0.62113780    -0.12600
C1697       C  0.59134021  0.99454139  0.62836699    -0.11000
C1698       C  0.57128757  0.50345437  0.61133767    -0.12600
C1699       C  0.50276165  0.43362030  0.61317167    -0.11000
C1700       C  0.50244053  0.40414136  0.61464031    -0.12600
C1701       C  0.93105489  0.43045609  0.62679833    -0.11000
C1702       C  0.90246238  0.40119068  0.62749707    -0.12600
C1703       C  0.90838214  0.50555249  0.62074726    -0.11000
C1704       C  0.93572722  0.50236773  0.62033132    -0.12600
C1705       C  0.81580332  0.06154984  0.94079419    -0.14200
C1706       C  0.84562841  0.05958859  0.93046103    -0.29400
H1707       H  0.78841249  0.04165140  0.93040524     0.14800
H1708       H  0.87302863  0.07922758  0.94096688     0.15400
C1709       C  0.84794229  0.07083038  0.59330888    -0.14200
C1710       C  0.81849530  0.07390400  0.58351997    -0.29400
H1711       H  0.87491765  0.08912266  0.58148861     0.14800
H1712       H  0.79124120  0.05461377  0.59432775     0.15400
C1713       C  0.73125837  0.17892877  0.90472346    -0.14200
C1714       C  0.72988104  0.15072764  0.92341410    -0.29400
H1715       H  0.75470211  0.20735022  0.90769821     0.14800
H1716       H  0.70639076  0.12236469  0.92014564     0.15400
C1717       C  0.91799420  0.24119958  0.92580340    -0.14200
C1718       C  0.92303958  0.27424339  0.91389074    -0.29400
H1719       H  0.93731658  0.23184859  0.91812270     0.14800
H1720       H  0.90426242  0.28387899  0.92266154     0.15400
C1721       C  0.72259586  0.15810521  0.57663644    -0.14200
C1722       C  0.71751313  0.18623809  0.58819008    -0.29400
H1723       H  0.70228404  0.12933710  0.58356390     0.14800
H1724       H  0.73795509  0.21509310  0.58241891     0.15400
C1725       C  0.90787161  0.26138942  0.57985110    -0.14200
C1726       C  0.93684670  0.26112237  0.59575416    -0.29400
H1727       H  0.90337999  0.28502101  0.58429021     0.14800
H1728       H  0.94121940  0.23732042  0.59209974     0.15400
C1729       C  0.55023316  0.22864483  0.90596453    -0.14200
C1730       C  0.58351402  0.23313543  0.91577528    -0.29400
H1731       H  0.54142948  0.24800229  0.91537412     0.14800
H1732       H  0.59262608  0.21452734  0.90496400     0.15400
C1733       C  0.57676254  0.22267805  0.55764668    -0.14200
C1734       C  0.54961470  0.22493333  0.57452616    -0.29400
H1735       H  0.57835221  0.19704862  0.55937930     0.14800
H1736       H  0.54769638  0.25037044  0.57272991     0.15400
C1737       C  0.68318200  0.45122420  0.92855426    -0.14200
C1738       C  0.65546263  0.41694792  0.93717072    -0.29400
H1739       H  0.71153581  0.46011776  0.93673095     0.14800
H1740       H  0.62769520  0.40771030  0.92688485     0.15400
C1741       C  0.77284162  0.32330068  0.91145501    -0.14200
C1742       C  0.77025473  0.35018769  0.92907270    -0.29400
H1743       H  0.75108922  0.29406518  0.91433178     0.14800
H1744       H  0.79117705  0.37957786  0.92528296     0.15400
C1745       C  0.67740643  0.41368094  0.57573758    -0.14200
C1746       C  0.65151940  0.42412693  0.57746654    -0.29400
H1747       H  0.70267416  0.42860258  0.59135836     0.14800
H1748       H  0.62654318  0.40931442  0.56144292     0.15400
C1749       C  0.75064107  0.30097194  0.57186193    -0.14200
C1750       C  0.77545737  0.32977308  0.59132995    -0.29400
H1751       H  0.74923773  0.27398578  0.57294321     0.14800
H1752       H  0.77661171  0.35679005  0.58969006     0.15400
Fe1753     Fe  0.71503258  0.88411650  0.00074842     1.65800
Fe1754     Fe  0.62340002  0.82782659  0.49845592     1.73200
Fe1755     Fe  0.66469451  0.77327111  0.49616193     1.54400
O1756       O  0.70358081  0.78651449  0.45834519    -0.79500
O1757       O  0.60935840  0.78461295  0.04284408    -0.77800
O1758       O  0.73832141  0.84897609  0.45825000    -0.82000
O1759       O  0.74580195  0.87408036  0.03796194    -0.76800
O1760       O  0.62599210  0.75416377  0.45719992    -0.78600
O1761       O  0.63096501  0.86263465  0.03493828    -0.81300
C1762       C  0.74472568  0.84493568  0.05078083     0.99400
C1763       C  0.73005358  0.81665875  0.44657257     1.06900
O1764       O  0.66894116  0.82350188  0.49745052    -1.10300
O1765       O  0.64220224  0.86648779  0.45803820    -0.72700
O1766       O  0.70441434  0.89531556  0.45953306    -0.76200
O1767       O  0.72217330  0.81186700  0.04014107    -0.76900
C1768       C  0.67417230  0.89130193  0.44711006     0.98300
O1769       O  0.69223016  0.89998383  0.04076127    -0.74900
O1770       O  0.59449240  0.78484983  0.46186958    -0.80100
C1771       C  0.61894236  0.76067760  0.05118620     1.01000
C1772       C  0.59938401  0.75916509  0.44861121     1.06900
O1773       O  0.64460958  0.75810391  0.03573676    -0.75700
C1774       C  0.65894092  0.89114307  0.04792831     1.05200
Fe1775     Fe  0.87930051  0.67554723  0.49995082     1.65800
Fe1776     Fe  0.78911218  0.61806684  0.00856970     1.73200
Fe1777     Fe  0.82681771  0.71290445  0.00406150     1.54400
O1778       O  0.86811480  0.73904268  0.04075743    -0.79500
O1779       O  0.75376786  0.63207880  0.47763276    -0.77800
O1780       O  0.90874009  0.71956942  0.02925211    -0.82000
O1781       O  0.89312435  0.71291396  0.45879918    -0.76800
O1782       O  0.78845554  0.69102082  0.04451110    -0.78600
O1783       O  0.79951022  0.59814455  0.46838647    -0.81300
C1784       C  0.88651051  0.73938985  0.45227685     0.99400
C1785       C  0.89932685  0.74093181  0.04521288     1.06900
O1786       O  0.83300266  0.66847622  0.00241318    -1.10300
O1787       O  0.81691477  0.59632822  0.03606448    -0.72700
O1788       O  0.87723679  0.63874106  0.03536396    -0.76200
O1789       O  0.86244328  0.74362022  0.46888230    -0.76900
C1790       C  0.85007653  0.60808326  0.04608822     0.98300
O1791       O  0.86132855  0.63203564  0.46373629    -0.74900
O1792       O  0.77649072  0.63257025  0.05536086    -0.80100
C1793       C  0.75623004  0.66122795  0.46338569     1.01000
C1794       C  0.77387803  0.66116198  0.06287238     1.06900
O1795       O  0.78262829  0.69435656  0.46972351    -0.75700
C1796       C  0.82992216  0.60464451  0.45447704     1.05200
C1797       C  0.95824856  0.99433345  0.12593723     0.04500
C1798       C  0.96147586  0.96156174  0.12690478     0.04500
C1799       C  0.50218848  0.96775758  0.11087079     0.04500
C1800       C  0.53417780  0.00320979  0.10606931     0.04500
C1801       C  0.55440347  0.53989797  0.14004778     0.04500
C1802       C  0.52181628  0.54249500  0.14149102     0.04500
C1803       C  0.80111662  0.97989762  0.14871762     0.82400
N1804       N  0.81054565  0.49982584  0.12554726    -0.75900
C1805       C  0.83784691  0.52737381  0.10572677     0.84900
N1806       N  0.87134873  0.52905795  0.10273035    -0.75800
C1807       C  0.87744233  0.50341391  0.11923873     0.85000
N1808       N  0.82990774  0.97286412  0.14718347    -0.77500
C1809       C  0.70828486  0.52018351  0.14967844     0.82400
N1810       N  0.70884597  0.49092178  0.13374977    -0.75900
C1811       C  0.67145409  0.97921207  0.09426566     0.84900
N1812       N  0.63834331  0.97788968  0.08834869    -0.75800
C1813       C  0.64576574  0.49551181  0.13244672     0.85000
N1814       N  0.67663163  0.52233715  0.14900828    -0.77500
C1815       C  0.71388541  0.67932558  0.12479586     0.82400
N1816       N  0.71399075  0.70852351  0.14141454    -0.75900
C1817       C  0.68363882  0.70302218  0.15950804     0.84900
N1818       N  0.65282470  0.66825546  0.16054105    -0.75800
C1819       C  0.65258186  0.63905972  0.14370179     0.85000
N1820       N  0.68302939  0.64455136  0.12582394    -0.77500
C1821       C  0.97728596  0.67145345  0.14248684     0.82400
N1822       N  0.97864054  0.63889877  0.14102493    -0.75900
C1823       C  0.00354148  0.63634829  0.11969915     0.84900
N1824       N  0.54915790  0.67230337  0.12393583    -0.75800
C1825       C  0.54781533  0.70470434  0.12190116     0.85000
N1826       N  0.00109998  0.70135328  0.12248074    -0.77500
C1827       C  0.80281091  0.82428196  0.11586767     0.82400
N1828       N  0.83595043  0.85696636  0.11575804    -0.75900
C1829       C  0.86560949  0.85969442  0.13336487     0.84900
N1830       N  0.86232555  0.82955871  0.15120333    -0.75800
C1831       C  0.82919830  0.79661926  0.15155438     0.85000
N1832       N  0.79952882  0.79415603  0.13383502    -0.77500
C1833       C  0.54112794  0.84378435  0.13933365     0.82400
N1834       N  0.51477710  0.80975550  0.12566975    -0.75900
C1835       C  0.98591104  0.80877555  0.09864537     0.84900
N1836       N  0.98299291  0.84036253  0.10075595    -0.75800
C1837       C  0.51008287  0.87268795  0.11385681     0.85000
N1838       N  0.53850263  0.87488309  0.13304789    -0.77500
Fe1839     Fe  0.83239555  0.60991026  0.26101946     1.65800
Fe1840     Fe  0.79643715  0.66927679  0.26093273     1.73200
Fe1841     Fe  0.89107466  0.70570278  0.25999958     1.54400
O1842       O  0.91076396  0.68325168  0.29721268    -0.79500
O1843       O  0.81707122  0.70928986  0.22176273    -0.77800
O1844       O  0.86986950  0.62176416  0.30146940    -0.82000
O1845       O  0.87386352  0.62197932  0.22424129    -0.76800
O1846       O  0.88022650  0.73309305  0.29970173    -0.78600
O1847       O  0.76854462  0.62900525  0.22309662    -0.81300
C1848       C  0.90055156  0.65132748  0.21066012     0.99400
C1849       C  0.89986290  0.65105351  0.31057384     1.06900
O1850       O  0.83996293  0.66162742  0.26072140    -1.10300
O1851       O  0.76910298  0.63032529  0.29993214    -0.72700
O1852       O  0.78930306  0.58921972  0.29757714    -0.76200
O1853       O  0.90861374  0.68432832  0.21987950    -0.76900
C1854       C  0.76743515  0.59991794  0.30946521     0.98300
O1855       O  0.79430524  0.59249003  0.22048388    -0.74900
O1856       O  0.81883878  0.71068426  0.29871030    -0.80100
C1857       C  0.84938239  0.73320416  0.21117161     1.01000
C1858       C  0.85128416  0.73321574  0.31026363     1.06900
O1859       O  0.87872615  0.73454457  0.22279317    -0.75700
C1860       C  0.77070863  0.60164400  0.21026418     1.05200
Fe1861     Fe  0.62050112  0.79032983  0.26879678     1.65800
Fe1862     Fe  0.71474055  0.83525255  0.25761108     1.73200
Fe1863     Fe  0.66947150  0.88579029  0.25282282     1.54400
O1864       O  0.62649586  0.86159956  0.21534453    -0.79500
O1865       O  0.74227508  0.88094453  0.28947090    -0.77800
O1866       O  0.59393331  0.80012791  0.22783869    -0.82000
O1867       O  0.60184802  0.81503714  0.30391533    -0.76800
O1868       O  0.70802656  0.90404207  0.21255510    -0.78600
O1869       O  0.70274566  0.80203257  0.30133461    -0.81300
C1870       C  0.60720412  0.84791945  0.30882917     0.99400
C1871       C  0.59934626  0.82829283  0.20965978     1.06900
O1872       O  0.66823041  0.83722811  0.25982454    -1.10300
O1873       O  0.69252192  0.78950244  0.22521463    -0.72700
O1874       O  0.63145348  0.75818123  0.23481792    -0.76200
O1875       O  0.63143665  0.87631501  0.29214984    -0.76900
C1876       C  0.66025394  0.76174126  0.21997632     0.98300
O1877       O  0.64165607  0.77476624  0.31049122    -0.74900
O1878       O  0.73432525  0.86825109  0.21383920    -0.80100
C1879       C  0.73934006  0.90881829  0.29931718     1.01000
C1880       C  0.73121660  0.89499016  0.20114742     1.06900
O1881       O  0.71298646  0.91432392  0.28929781    -0.75700
C1882       C  0.67380953  0.78037614  0.31851855     1.05200
C1883       C  0.97228889  0.49295071  0.37745496     0.04500
C1884       C  0.96696106  0.96721362  0.35715756     0.04500
C1885       C  0.49199045  0.95960935  0.37326755     0.04500
C1886       C  0.52646687  0.99379115  0.37254375     0.04500
C1887       C  0.53393344  0.53046039  0.38235980     0.04500
C1888       C  0.49979523  0.53008817  0.38379011     0.04500
C1889       C  0.69459745  0.51443229  0.36227323     0.82800
N1890       N  0.69186480  0.48366061  0.37871927    -0.75900
C1891       C  0.64972500  0.95188382  0.38882989     0.84900
N1892       N  0.61976888  0.95687099  0.38762784    -0.75800
C1893       C  0.63148408  0.49307891  0.37551193     0.85000
N1894       N  0.66419679  0.51905500  0.36082261    -0.77500
C1895       C  0.81309102  0.99622810  0.34849566     0.82400
N1896       N  0.82255623  0.52023297  0.37891577    -0.75900
C1897       C  0.85428725  0.54263389  0.39735614     0.84900
N1898       N  0.88270941  0.53500843  0.39694758    -0.75800
C1899       C  0.87946868  0.50507615  0.37858504     0.85000
N1900       N  0.84297133  0.99131395  0.34408327    -0.77500
C1901       C  0.98549701  0.66819608  0.36326832     0.82400
N1902       N  0.01567677  0.69671285  0.37968850    -0.75900
C1903       C  0.50934390  0.68722510  0.40452567     0.84900
N1904       N  0.51496599  0.65720231  0.40495723    -0.75800
C1905       C  0.00946604  0.62785588  0.37389705     0.85000
N1906       N  0.98255604  0.63374855  0.36052426    -0.77500
C1907       C  0.68764958  0.67647845  0.40802699     0.82400
N1908       N  0.65822674  0.64080760  0.40616425    -0.75900
C1909       C  0.62614009  0.63396258  0.39051247     0.84900
N1910       N  0.62311549  0.66262129  0.37667981    -0.75800
C1911       C  0.65224070  0.69829301  0.37808820     0.85000
N1912       N  0.68470224  0.70530457  0.39375033    -0.77500
C1913       C  0.52398098  0.82674149  0.36710877     0.82400
N1914       N  0.49690343  0.79633792  0.38416303    -0.75900
C1915       C  0.96435176  0.79915890  0.38718980     0.84900
N1916       N  0.96601936  0.83326977  0.38705082    -0.75800
C1917       C  0.49280729  0.86021636  0.37937419     0.85000
N1918       N  0.52178167  0.85864297  0.36475878    -0.77500
C1919       C  0.80989098  0.83952963  0.38465004     0.82400
N1920       N  0.80531466  0.80548290  0.37487307    -0.75900
C1921       C  0.83330208  0.80361611  0.35820588     0.84900
N1922       N  0.86556154  0.83585614  0.35110670    -0.75800
C1923       C  0.86959194  0.86953734  0.36044494     0.85000
N1924       N  0.84201862  0.87134009  0.37732339    -0.77500
C1925       C  0.49902635  0.56497612  0.38752202    -0.11000
C1926       C  0.00624332  0.59165065  0.37165975    -0.12600
C1927       C  0.59548488  0.59647050  0.38801105    -0.11000
C1928       C  0.56828586  0.56586413  0.38529665    -0.12600
C1929       C  0.93221705  0.93266498  0.35447273    -0.11000
C1930       C  0.90371094  0.90325292  0.35499795    -0.12600
C1931       C  0.91000187  0.49736085  0.37818077    -0.11000
C1932       C  0.93708988  0.49329408  0.37795366    -0.12600
C1933       C  0.56117072  0.99305705  0.37098013    -0.11000
C1934       C  0.59899067  0.49719819  0.37441194    -0.12600
C1935       C  0.49120703  0.92378610  0.37479195    -0.11000
C1936       C  0.49114734  0.89435628  0.37689320    -0.12600
C1937       C  0.64852139  0.72765915  0.35957534    -0.14200
C1938       C  0.67800727  0.75894794  0.34738346    -0.29400
H1939       H  0.62067771  0.72033448  0.35092133     0.14800
H1940       H  0.70599770  0.76530059  0.35440988     0.15400
C1941       C  0.58263031  0.85316424  0.33332759    -0.14200
C1942       C  0.55392409  0.82372708  0.34928582    -0.29400
H1943       H  0.58602031  0.88114458  0.33560737     0.14800
H1944       H  0.55079982  0.79583348  0.34732512     0.15400
C1945       C  0.76984639  0.93542369  0.32232632    -0.14200
C1946       C  0.77714770  0.97011793  0.33119929    -0.29400
H1947       H  0.78962202  0.92662838  0.33012522     0.14800
H1948       H  0.75755934  0.97947542  0.32487859     0.15400
C1949       C  0.95742249  0.67512642  0.34627506    -0.14200
C1950       C  0.92414924  0.64639786  0.33597223    -0.29400
H1951       H  0.96530610  0.70398217  0.33986009     0.14800
H1952       H  0.91607858  0.61776902  0.34357607     0.15400
C1953       C  0.73680869  0.57548357  0.33367963    -0.14200
C1954       C  0.72976715  0.54118123  0.34419581    -0.29400
H1955       H  0.71740938  0.58493793  0.34076945     0.14800
H1956       H  0.74942657  0.53178131  0.33813220     0.15400
C1957       C  0.82755063  0.76726193  0.34520332    -0.14200
C1958       C  0.85634156  0.76327243  0.33466421    -0.29400
H1959       H  0.79906336  0.74475407  0.34097135     0.14800
H1960       H  0.88473543  0.78544826  0.34009501     0.15400
C1961       C  0.57217392  0.84869158  0.16236957    -0.14200
C1962       C  0.57159818  0.82099943  0.18147001    -0.29400
H1963       H  0.59458312  0.87740830  0.16672203     0.14800
H1964       H  0.54856593  0.79239632  0.17818100     0.15400
C1965       C  0.85373139  0.76224983  0.18562676    -0.14200
C1966       C  0.82455392  0.76405095  0.17226163    -0.29400
H1967       H  0.88190680  0.78422483  0.17945308     0.14800
H1968       H  0.79632981  0.74164169  0.17758104     0.15400
C1969       C  0.92372770  0.64637423  0.18386244    -0.14200
C1970       C  0.95158268  0.67559389  0.16673263    -0.29400
H1971       H  0.91843760  0.61799000  0.17894080     0.14800
H1972       H  0.95618550  0.70383918  0.17092843     0.15400
C1973       C  0.68533102  0.73460828  0.17883614    -0.14200
C1974       C  0.65609142  0.73158663  0.19651984    -0.29400
H1975       H  0.71202447  0.76061147  0.17973736     0.14800
H1976       H  0.62915588  0.70591761  0.19511818     0.15400
C1977       C  0.74101270  0.54759895  0.16980881    -0.14200
C1978       C  0.74284469  0.57856667  0.18367650    -0.29400
H1979       H  0.76280354  0.54087446  0.17518451     0.14800
H1980       H  0.72132619  0.58551595  0.17764359     0.15400
C1981       C  0.76580358  0.95285997  0.16588458    -0.14200
C1982       C  0.75831402  0.91785378  0.17397703    -0.29400
H1983       H  0.74766896  0.96313252  0.17502750     0.14800
H1984       H  0.77663236  0.90791807  0.16451072     0.15400
C1985       C  0.59044436  0.57372669  0.14182059    -0.11000
C1986       C  0.61943557  0.60302072  0.14311378    -0.12600
C1987       C  0.00841037  0.57433610  0.11578306    -0.11000
C1988       C  0.00580575  0.60238415  0.11814693    -0.12600
C1989       C  0.61244007  0.49809549  0.13271140    -0.11000
C1990       C  0.56936865  0.00511208  0.09905798    -0.12600
C1991       C  0.50469161  0.93378801  0.10879184    -0.11000
C1992       C  0.50681844  0.90557607  0.10952844    -0.12600
C1993       C  0.92845521  0.92474597  0.13042321    -0.11000
C1994       C  0.90038036  0.89453180  0.13257494    -0.12600
C1995       C  0.89377551  0.99230571  0.13209268    -0.11000
C1996       C  0.92221468  0.99141098  0.12940745    -0.12600
C1997       C  0.82811249  0.57795293  0.42732300    -0.14200
C1998       C  0.85763030  0.57399700  0.41936051    -0.29400
H1999       H  0.80090707  0.55841047  0.41636955     0.14800
H2000       H  0.88441233  0.59233813  0.43169752     0.15400
C2001       C  0.83036194  0.55386824  0.08599920    -0.14200
C2002       C  0.85774518  0.58456220  0.07011842    -0.29400
H2003       H  0.80158165  0.54725962  0.08351051     0.14800
H2004       H  0.88663561  0.59193569  0.07377330     0.15400
C2005       C  0.72199494  0.68394226  0.42663879    -0.14200
C2006       C  0.72584459  0.65551767  0.43954956    -0.29400
H2007       H  0.74335689  0.71301955  0.43136495     0.14800
H2008       H  0.70432795  0.62653459  0.43463047     0.15400
C2009       C  0.90892344  0.76804584  0.42570663    -0.14200
C2010       C  0.93668330  0.76731268  0.40833295    -0.29400
H2011       H  0.90446497  0.79185176  0.42252436     0.14800
H2012       H  0.94076029  0.74323790  0.41122635     0.15400
C2013       C  0.75027955  0.65777096  0.09260197    -0.14200
C2014       C  0.74559894  0.68627740  0.10294150    -0.29400
H2015       H  0.73330264  0.62992009  0.10385914     0.14800
H2016       H  0.76344028  0.71459250  0.09304610     0.15400
C2017       C  0.92569940  0.77088687  0.06897504    -0.14200
C2018       C  0.95937779  0.77607093  0.07740674    -0.29400
H2019       H  0.91735216  0.79039677  0.07903503     0.14800
H2020       H  0.96754647  0.75593448  0.06887423     0.15400
C2021       C  0.53708800  0.72327430  0.42066513    -0.14200
C2022       C  0.57259245  0.73146525  0.42370141    -0.29400
H2023       H  0.52786098  0.74143670  0.43225522     0.14800
H2024       H  0.58097905  0.71295995  0.41128364     0.15400
C2025       C  0.59876610  0.73351700  0.07918185    -0.14200
C2026       C  0.57260020  0.73527726  0.09832643    -0.29400
H2027       H  0.60427264  0.71044994  0.08284339     0.14800
H2028       H  0.56757114  0.75871255  0.09508115     0.15400
C2029       C  0.64703135  0.92057740  0.41000523    -0.14200
C2030       C  0.67685282  0.91806666  0.41980673    -0.29400
H2031       H  0.61979121  0.90089719  0.42058641     0.14800
H2032       H  0.70433633  0.93841395  0.41018995     0.15400
C2033       C  0.78234481  0.84293368  0.40584692    -0.14200
C2034       C  0.75270959  0.81293641  0.41919848    -0.29400
H2035       H  0.78859162  0.87112061  0.41329783     0.14800
H2036       H  0.74657255  0.78471885  0.41201479     0.15400
C2037       C  0.65161509  0.91624952  0.06997448    -0.14200
C2038       C  0.67896701  0.95020316  0.08023808    -0.29400
H2039       H  0.62273331  0.90853739  0.07428464     0.14800
H2040       H  0.70791774  0.95781898  0.07672287     0.15400
C2041       C  0.77218982  0.84991590  0.07805335    -0.14200
C2042       C  0.77142679  0.82035578  0.09431685    -0.29400
H2043       H  0.79489530  0.87830737  0.08313073     0.14800
H2044       H  0.74814656  0.79208066  0.09006627     0.15400
Fe2045     Fe  0.71876939  0.86909744  0.49777427     1.65800
Fe2046     Fe  0.62184066  0.82012751  0.00074781     1.73200
Fe2047     Fe  0.68497619  0.78957670  0.99936968     1.54400
O2048       O  0.72681061  0.81524744  0.96290181    -0.79500
O2049       O  0.60015343  0.78968483  0.53900571    -0.77800
O2050       O  0.74352324  0.87594800  0.96038651    -0.82000
O2051       O  0.73862164  0.84802499  0.53622669    -0.76800
O2052       O  0.64899311  0.76182535  0.95864512    -0.78600
O2053       O  0.64471360  0.87105121  0.53542004    -0.81300
C2054       C  0.72955102  0.81539604  0.54755992     0.99400
C2055       C  0.74620145  0.84796704  0.95011226     1.06900
O2056       O  0.67402766  0.83137623  0.00016753    -1.10300
O2057       O  0.62916864  0.85512780  0.95918070    -0.72700
O2058       O  0.68879172  0.90034346  0.96406011    -0.76200
O2059       O  0.70275714  0.78556147  0.53518109    -0.76900
C2060       C  0.65641360  0.88682077  0.95055298     0.98300
O2061       O  0.70623953  0.89577558  0.53722788    -0.74900
O2062       O  0.60435380  0.77626417  0.96594439    -0.80100
C2063       C  0.60320185  0.76150042  0.54798835     1.01000
C2064       C  0.61750527  0.75780952  0.95102574     1.06900
O2065       O  0.62523979  0.75277876  0.53374750    -0.75700
C2066       C  0.67662530  0.89453319  0.54768758     1.05200
Fe2067     Fe  0.88228816  0.67401203  0.99454557     1.65800
Fe2068     Fe  0.78536979  0.61946978  0.51106733     1.73200
Fe2069     Fe  0.82371769  0.71527418  0.50758123     1.54400
O2070       O  0.86411930  0.74060533  0.54551128    -0.79500
O2071       O  0.75313848  0.63072078  0.98233631    -0.77800
O2072       O  0.90371332  0.71956725  0.53547631    -0.82000
O2073       O  0.89443954  0.71023419  0.95292323    -0.76800
O2074       O  0.78389304  0.69496335  0.54647562    -0.78600
O2075       O  0.79848344  0.59980732  0.96209000    -0.81300
C2076       C  0.88813764  0.73698861  0.94701333     0.99400
C2077       C  0.89454192  0.74111176  0.55115714     1.06900
O2078       O  0.82948048  0.67006657  0.50620666    -1.10300
O2079       O  0.81118553  0.60001293  0.54516386    -0.72700
O2080       O  0.87233582  0.63896534  0.54024170    -0.76200
O2081       O  0.86461495  0.74152764  0.96439728    -0.76900
C2082       C  0.84466374  0.61032068  0.55352114     0.98300
O2083       O  0.86067381  0.62943745  0.95860998    -0.74900
O2084       O  0.76521315  0.63426575  0.55407415    -0.80100
C2085       C  0.75639529  0.65862152  0.96522413     1.01000
C2086       C  0.76425923  0.66384725  0.56194668     1.06900
O2087       O  0.78515831  0.69103384  0.96703044    -0.75700
C2088       C  0.82818225  0.60505966  0.94776074     1.05200
C2089       C  0.96411183  0.99530999  0.62978617     0.04500
C2090       C  0.96645633  0.96215653  0.63049215     0.04500
C2091       C  0.49355388  0.96164537  0.62666188     0.04500
C2092       C  0.52757289  0.99616868  0.62558543     0.04500
C2093       C  0.53568649  0.53728814  0.61134572     0.04500
C2094       C  0.50161047  0.53703148  0.61291056     0.04500
C2095       C  0.81092045  0.98913979  0.65488009     0.82400
N2096       N  0.80744951  0.50213453  0.63344911    -0.75900
C2097       C  0.83417510  0.52967499  0.61312412     0.84900
N2098       N  0.86755098  0.53112734  0.60889902    -0.75800
C2099       C  0.87398717  0.50534527  0.62490900     0.85000
N2100       N  0.84005822  0.98261335  0.65502590    -0.77500
C2101       C  0.69032567  0.51150452  0.63276174     0.82400
N2102       N  0.68742038  0.48049824  0.61623927    -0.75900
C2103       C  0.65325934  0.95730338  0.60622930     0.84900
N2104       N  0.62315896  0.96216518  0.60771007    -0.75800
C2105       C  0.63016638  0.49488308  0.61271280     0.85000
N2106       N  0.66142967  0.51833329  0.63086885    -0.77500
C2107       C  0.69378301  0.68119518  0.60989129     0.82400
N2108       N  0.68972401  0.70907298  0.62507068    -0.75900
C2109       C  0.65544230  0.70174669  0.63626318     0.84900
N2110       N  0.62560599  0.66692344  0.63171233    -0.75800
C2111       C  0.62959620  0.63941719  0.61645179     0.85000
N2112       N  0.66350647  0.64638768  0.60574764    -0.77500
C2113       C  0.97190200  0.66339974  0.63885907     0.82400
N2114       N  0.97387968  0.63126501  0.63839279    -0.75900
C2115       C  0.00314413  0.63101668  0.62268632     0.84900
N2116       N  0.52178495  0.66537273  0.60005185    -0.75800
C2117       C  0.51945784  0.69729525  0.60154911     0.85000
N2118       N  0.99923951  0.69500049  0.62364936    -0.77500
C2119       C  0.80868831  0.83608984  0.61051079     0.82400
N2120       N  0.84257773  0.86667795  0.61572824    -0.75900
C2121       C  0.86930993  0.86366782  0.63314486     0.84900
N2122       N  0.86243872  0.82978936  0.64537087    -0.75800
C2123       C  0.82830469  0.79875235  0.64047522     0.85000
N2124       N  0.80136437  0.80199914  0.62309724    -0.77500
C2125       C  0.53184240  0.83303953  0.64208323     0.82400
N2126       N  0.50503433  0.80196158  0.62538276    -0.75900
C2127       C  0.98257662  0.80526800  0.60338216     0.84900
N2128       N  0.98104723  0.83754720  0.60533615    -0.75800
C2129       C  0.49925247  0.86493816  0.62908576     0.85000
N2130       N  0.52890540  0.86461848  0.64389698    -0.77500
Fe2131     Fe  0.81902714  0.60239577  0.74504412     1.65800
Fe2132     Fe  0.78562567  0.66431084  0.74177314     1.73200
Fe2133     Fe  0.87947302  0.69784711  0.74286405     1.54400
O2134       O  0.89691199  0.67585893  0.78205455    -0.79500
O2135       O  0.80768871  0.70300194  0.70164221    -0.77800
O2136       O  0.85690040  0.61420636  0.78530740    -0.82000
O2137       O  0.85947915  0.61174106  0.70827350    -0.76800
O2138       O  0.86975299  0.72782640  0.78047010    -0.78600
O2139       O  0.75696282  0.62238088  0.70466930    -0.81300
C2140       C  0.88747760  0.64077777  0.69592605     0.99400
C2141       C  0.88603796  0.64374833  0.79545571     1.06900
O2142       O  0.82800336  0.65482057  0.74319745    -1.10300
O2143       O  0.75775729  0.62726744  0.78182788    -0.72700
O2144       O  0.77776117  0.58587534  0.78242421    -0.76200
O2145       O  0.89639190  0.67397136  0.70517280    -0.76900
C2146       C  0.75686023  0.59799470  0.79371468     0.98300
O2147       O  0.77987351  0.58333780  0.70489693    -0.74900
O2148       O  0.80890548  0.70775302  0.77864423    -0.80100
C2149       C  0.84056745  0.72590511  0.69159010     1.01000
C2150       C  0.84163067  0.72984052  0.79020618     1.06900
O2151       O  0.86907868  0.72609606  0.70390719    -0.75700
C2152       C  0.75735591  0.59335714  0.69338963     1.05200
Fe2153     Fe  0.62047052  0.79523508  0.74703094     1.65800
Fe2154     Fe  0.71430858  0.83521953  0.75988712     1.73200
Fe2155     Fe  0.67472701  0.89058027  0.76063885     1.54400
O2156       O  0.63523229  0.88122142  0.72254128    -0.79500
O2157       O  0.73103831  0.86441596  0.80608109    -0.77800
O2158       O  0.60736665  0.82064894  0.70770632    -0.82000
O2159       O  0.59358083  0.81086998  0.78444632    -0.76800
O2160       O  0.71583896  0.91428407  0.72232437    -0.78600
O2161       O  0.68789359  0.78609355  0.78883725    -0.81300
C2162       C  0.60282827  0.84032927  0.80280018     0.99400
C2163       C  0.61241254  0.85355931  0.70393368     1.06900
O2164       O  0.66969429  0.84025568  0.75588655    -1.10300
O2165       O  0.70332794  0.80582828  0.71400908    -0.72700
O2166       O  0.64140356  0.77416707  0.70877048    -0.76200
O2167       O  0.63372593  0.87087596  0.79886105    -0.76900
C2168       C  0.67380152  0.78178949  0.69879248     0.98300
O2169       O  0.62673751  0.76344685  0.78506039    -0.74900
O2170       O  0.74681805  0.88348834  0.73129551    -0.80100
C2171       C  0.73401219  0.89558299  0.81468921     1.01000
C2172       C  0.74355732  0.90960678  0.71689257     1.06900
O2173       O  0.71577942  0.90894318  0.79950584    -0.75700
C2174       C  0.65457477  0.76213865  0.79692370     1.05200
C2175       C  0.96714765  0.50295434  0.86725819     0.04500
C2176       C  0.96695988  0.96330355  0.86426698     0.04500
C2177       C  0.50434487  0.96579329  0.86923699     0.04500
C2178       C  0.53874208  0.00016345  0.86894453     0.04500
C2179       C  0.53749391  0.53238649  0.87695725     0.04500
C2180       C  0.50314591  0.53188211  0.87546975     0.04500
C2181       C  0.69932623  0.52431955  0.86317005     0.82800
N2182       N  0.70443899  0.50103706  0.88474595    -0.75900
C2183       C  0.67221923  0.97064195  0.89397794     0.84900
N2184       N  0.63908771  0.97018479  0.89239288    -0.75800
C2185       C  0.63772282  0.49881819  0.88366688     0.85000
N2186       N  0.66593383  0.52318587  0.86273402    -0.77500
C2187       C  0.80653083  0.97798833  0.86923158     0.82400
N2188       N  0.81418700  0.52163039  0.86873306    -0.75900
C2189       C  0.84789174  0.54734460  0.88242429     0.84900
N2190       N  0.87722407  0.54173063  0.87933448    -0.75800
C2191       C  0.87330908  0.51070171  0.86306488     0.85000
N2192       N  0.83733438  0.97505711  0.86301940    -0.77500
C2193       C  0.96853667  0.66892403  0.85633978     0.82400
N2194       N  0.99562472  0.70059588  0.87202870    -0.75900
C2195       C  0.53505491  0.69630670  0.89221755     0.84900
N2196       N  0.53374438  0.66250955  0.89210947    -0.75800
C2197       C  0.00015744  0.63675413  0.87220166     0.85000
N2198       N  0.97087901  0.63701287  0.85651939    -0.77500
C2199       C  0.69428829  0.67372243  0.90080376     0.82400
N2200       N  0.66222662  0.63990891  0.89971665    -0.75900
C2201       C  0.63372823  0.63489091  0.87860165     0.84900
N2202       N  0.63722610  0.66383549  0.85848135    -0.75800
C2203       C  0.66940313  0.69772312  0.85952471     0.85000
N2204       N  0.69773756  0.70235009  0.88058040    -0.77500
C2205       C  0.51548322  0.81916721  0.85712711     0.82400
N2206       N  0.48525154  0.79122531  0.87440654    -0.75900
C2207       C  0.96749946  0.79776041  0.88370349     0.84900
N2208       N  0.96867343  0.83159187  0.88394568    -0.75800
C2209       C  0.49591394  0.86237455  0.87213823     0.85000
N2210       N  0.52035079  0.85451140  0.85633735    -0.77500
C2211       C  0.80498586  0.82895480  0.88461041     0.82400
N2212       N  0.80023093  0.79845044  0.86637041    -0.75900
C2213       C  0.82843134  0.79986425  0.84730444     0.84900
N2214       N  0.86198063  0.83243995  0.84645389    -0.75800
C2215       C  0.86694352  0.86332294  0.86453072     0.85000
N2216       N  0.83842294  0.86146032  0.88362954    -0.77500
C2217       C  0.50286605  0.56705194  0.87561060    -0.11000
C2218       C  0.00201221  0.60256398  0.87225039    -0.12600
C2219       C  0.60017737  0.59875206  0.87747587    -0.11000
C2220       C  0.57217321  0.56825183  0.87726123    -0.12600
C2221       C  0.93168060  0.92757008  0.86391239    -0.11000
C2222       C  0.90238502  0.89802152  0.86380700    -0.12600
C2223       C  0.90458003  0.50504931  0.86188934    -0.11000
C2224       C  0.93275210  0.50354635  0.86376840    -0.12600
C2225       C  0.57364566  0.99961850  0.87102302    -0.11000
C2226       C  0.60230217  0.49790133  0.88257552    -0.12600
C2227       C  0.50385131  0.93024290  0.87002839    -0.11000
C2228       C  0.50123654  0.89965207  0.87083106    -0.12600
C2229       C  0.67520342  0.72943976  0.83723318    -0.14200
C2230       C  0.64742073  0.73073603  0.82046699    -0.29400
H2231       H  0.70356390  0.75279099  0.83487383     0.14800
H2232       H  0.61883946  0.70815596  0.82383415     0.15400
C2233       C  0.57639933  0.84118798  0.82864047    -0.14200
C2234       C  0.54250288  0.81195536  0.83743480    -0.29400
H2235       H  0.58475121  0.86884968  0.83947821     0.14800
H2236       H  0.53387878  0.78361351  0.82840649     0.15400
C2237       C  0.76260687  0.91793637  0.84126414    -0.14200
C2238       C  0.77104851  0.95278031  0.85108905    -0.29400
H2239       H  0.78036641  0.90698450  0.84999003     0.14800
H2240       H  0.75291951  0.96379596  0.84396381     0.15400
C2241       C  0.93906661  0.67083520  0.83640893    -0.14200
C2242       C  0.90959458  0.64024081  0.82252722    -0.29400
H2243       H  0.94326501  0.69871243  0.83094972     0.14800
H2244       H  0.90452461  0.61223689  0.82889668     0.15400
C2245       C  0.72911982  0.57662975  0.82098009    -0.14200
C2246       C  0.72935905  0.54858304  0.83884746    -0.29400
H2247       H  0.70739782  0.58356400  0.82581694     0.14800
H2248       H  0.75195472  0.54269055  0.83512654     0.15400
C2249       C  0.82119110  0.76625613  0.82667958    -0.14200
C2250       C  0.84853196  0.76083622  0.81459916    -0.29400
H2251       H  0.79232721  0.74546917  0.82112399     0.14800
H2252       H  0.87729039  0.78099966  0.82130476     0.15400
C2253       C  0.56189544  0.83064215  0.66040016    -0.14200
C2254       C  0.58902900  0.85957376  0.67848050    -0.29400
H2255       H  0.55965711  0.80308000  0.66136844     0.14800
H2256       H  0.59152331  0.88723920  0.67742175     0.15400
C2257       C  0.84700682  0.75596351  0.66666704    -0.14200
C2258       C  0.81972536  0.76233870  0.65595612    -0.29400
H2259       H  0.87581372  0.77634521  0.66057915     0.14800
H2260       H  0.79073331  0.74181410  0.66106910     0.15400
C2261       C  0.91209482  0.63574939  0.67126933    -0.14200
C2262       C  0.94214518  0.66572584  0.65763291    -0.29400
H2263       H  0.90720682  0.60747814  0.66651510     0.14800
H2264       H  0.94632260  0.69382130  0.66182700     0.15400
C2265       C  0.64998917  0.72923889  0.65659878    -0.14200
C2266       C  0.67851673  0.76079626  0.66969622    -0.29400
H2267       H  0.62176790  0.72074474  0.66478684     0.14800
H2268       H  0.70681679  0.76874548  0.66224741     0.15400
C2269       C  0.72371931  0.53676650  0.65422416    -0.14200
C2270       C  0.72885211  0.56988727  0.66686670    -0.29400
H2271       H  0.74317679  0.52729544  0.66102047     0.14800
H2272       H  0.70956074  0.57931053  0.65920857     0.15400
C2273       C  0.77716471  0.96477089  0.67605272    -0.14200
C2274       C  0.77438509  0.93487566  0.69348223    -0.29400
H2275       H  0.75500833  0.97155854  0.67767537     0.14800
H2276       H  0.79673808  0.92841640  0.69113896     0.15400
C2277       C  0.57014975  0.57263208  0.61121632    -0.11000
C2278       C  0.59799358  0.60278956  0.61264778    -0.12600
C2279       C  0.00620597  0.56834873  0.62105775    -0.11000
C2280       C  0.00532870  0.59725704  0.62185952    -0.12600
C2281       C  0.59916273  0.50119505  0.61188222    -0.11000
C2282       C  0.56301348  0.99641233  0.62752831    -0.12600
C2283       C  0.49436644  0.92673611  0.62919221    -0.11000
C2284       C  0.49644742  0.89843398  0.62999139    -0.12600
C2285       C  0.93344259  0.92613692  0.63567616    -0.11000
C2286       C  0.90504555  0.89641272  0.63682428    -0.12600
C2287       C  0.90142598  0.99714577  0.63604117    -0.11000
C2288       C  0.92872093  0.99393578  0.63410905    -0.12600
C2289       C  0.82372946  0.57992328  0.91834260    -0.14200
C2290       C  0.85274532  0.57914624  0.90409215    -0.29400
H2291       H  0.79552929  0.55876270  0.91090556     0.14800
H2292       H  0.88090427  0.59959142  0.91230612     0.15400
C2293       C  0.82581748  0.55607811  0.59393668    -0.14200
C2294       C  0.85261345  0.58728076  0.57819501    -0.29400
H2295       H  0.79683796  0.54880043  0.59152364     0.14800
H2296       H  0.88162167  0.59498242  0.58167294     0.15400
C2297       C  0.72566141  0.67997150  0.92338165    -0.14200
C2298       C  0.72501833  0.65237436  0.94265204    -0.29400
H2299       H  0.75001673  0.70803517  0.92391621     0.14800
H2300       H  0.70075738  0.62425636  0.94194450     0.15400
C2301       C  0.91067870  0.76566137  0.92046680    -0.14200
C2302       C  0.93895175  0.76522171  0.90360510    -0.29400
H2303       H  0.90637525  0.78957692  0.91743216     0.14800
H2304       H  0.94305447  0.74116065  0.90648659     0.15400
C2305       C  0.73643680  0.66051427  0.58792730    -0.14200
C2306       C  0.72995130  0.68894492  0.59527822    -0.29400
H2307       H  0.71716805  0.63233849  0.59736806     0.14800
H2308       H  0.74951357  0.71751846  0.58708769     0.15400
C2309       C  0.92098858  0.76961214  0.57576807    -0.14200
C2310       C  0.95392581  0.77259586  0.58384430    -0.29400
H2311       H  0.91410130  0.79021692  0.58581944     0.14800
H2312       H  0.96050719  0.75136447  0.57505513     0.15400
C2313       C  0.56392149  0.72853962  0.91169134    -0.14200
C2314       C  0.59424836  0.72923049  0.92493290    -0.29400
H2315       H  0.55874085  0.75157326  0.91712011     0.14800
H2316       H  0.60062515  0.70725253  0.91837118     0.15400
C2317       C  0.57947954  0.73559247  0.57486241    -0.14200
C2318       C  0.54621367  0.73109244  0.58275299    -0.29400
H2319       H  0.58734890  0.71561936  0.58471264     0.14800
H2320       H  0.53780730  0.75085709  0.57362754     0.15400
C2321       C  0.67733254  0.94308313  0.91430562    -0.14200
C2322       C  0.64942769  0.90989375  0.92525167    -0.29400
H2323       H  0.70586780  0.95123807  0.92120348     0.14800
H2324       H  0.62091691  0.90079446  0.91744053     0.15400
C2325       C  0.77450600  0.82489802  0.90734914    -0.14200
C2326       C  0.77417619  0.85406921  0.92312083    -0.29400
H2327       H  0.75200033  0.79638735  0.91220642     0.14800
H2328       H  0.79564938  0.88276392  0.91726537     0.15400
C2329       C  0.67997212  0.92251731  0.57453254    -0.14200
C2330       C  0.65092573  0.92706971  0.58300500    -0.29400
H2331       H  0.70724721  0.94121241  0.58581435     0.14800
H2332       H  0.62403433  0.90886487  0.57078575     0.15400
C2333       C  0.75148363  0.81097932  0.57546354    -0.14200
C2334       C  0.78200180  0.84048544  0.58864719    -0.29400
H2335       H  0.74398764  0.78256030  0.58326019     0.14800
H2336       H  0.78976107  0.86882895  0.58034947     0.15400
loop_ 
_geom_bond_atom_site_label_1 
_geom_bond_atom_site_label_2 
_geom_bond_distance 
_geom_bond_site_symmetry_2 
_ccdc_geom_bond_type 
Fe1          O17   2.054       .  S
Fe1           O7   2.063       .  S
Fe1         O306   2.058   1_554  S
Fe1         O298   2.038   1_554  S
Fe1         O304   1.989   1_554  S
Fe2          O13   2.044       .  S
Fe2          O18   2.058       .  S
Fe2         O297   2.048       .  S
Fe2         O301   2.055       .  S
Fe2          O12   1.973       .  S
Fe3           O8   2.084       .  S
Fe3           O4   2.075       .  S
Fe3         O313   2.068       .  S
Fe3         O307   2.077       .  S
Fe3          O12   1.981       .  S
O4           C11   1.268       .  A
O5         Fe294   2.087   1_554  S
O5           C19   1.278       .  A
O6         Fe293   2.078       .  S
O6           C11   1.269       .  A
O7           C10   1.269       .  A
O8           C20   1.275       .  A
O9         Fe294   2.083   1_554  S
O9           C22   1.270       .  A
C10          O15   1.271       .  A
C10         C289   1.484       .  S
C11         C282   1.487       .  S
O12        Fe293   1.974       .  S
O13          C16   1.266       .  A
O14        Fe293   2.091       .  S
O14          C16   1.278       .  A
O15        Fe295   2.083   1_554  S
C16         C278   1.471       .  S
O17          C22   1.264       .  A
O18          C20   1.265       .  A
C19          O21   1.272       .  A
C19         C273   1.480       .  S
C20         C270   1.483       .  S
O21        Fe295   2.066   1_554  S
C22         C285   1.482       .  S
Fe23         O39   2.078       .  S
Fe23         O29   2.051       .  S
Fe23        O328   2.050       .  S
Fe23        O320   2.079       .  S
Fe23        O326   1.962       .  S
Fe24         O35   2.081       .  S
Fe24         O40   2.086       .  S
Fe24        O319   2.065   1_554  S
Fe24        O323   2.094   1_554  S
Fe24         O34   1.977       .  S
Fe25         O30   2.081       .  S
Fe25         O26   2.085       .  S
Fe25        O335   2.083   1_554  S
Fe25        O329   2.068   1_554  S
Fe25         O34   1.974       .  S
O26          C33   1.276       .  A
O27        Fe316   2.081       .  S
O27          C41   1.273       .  A
O28        Fe315   2.042       .  S
O28          C33   1.262       .  A
O29          C32   1.265       .  A
O30          C42   1.270       .  A
O31        Fe316   2.050       .  S
O31          C44   1.266       .  A
C32          O37   1.271       .  A
C32         C257   1.479       .  S
C33         C265   1.477       .  S
O34        Fe315   1.980       .  S
O35          C38   1.270       .  A
O36        Fe315   2.035       .  S
O36          C38   1.265       .  A
O37        Fe317   2.086       .  S
C38         C250   1.479       .  S
O39          C44   1.274       .  A
O40          C42   1.276       .  A
C41          O43   1.270       .  A
C41         C254   1.476       .  S
C42         C261   1.500       .  S
O43        Fe317   2.064       .  S
C44         C245   1.472       .  S
C45          C46   1.406       .  A
C45        C1802   1.409       .  A
C45         C244   1.433       .  S
C46        C1215   1.406       .  A
C46         C241   1.468       .  S
C47          C48   1.411       .  A
C47        C1214   1.406   1_455  A
C47         C239   1.465       .  S
C48         C633   1.417       .  A
C48         C238   1.440       .  S
C49          C50   1.406   1_455  A
C49         C632   1.408       .  A
C49         C233   1.446       .  S
C50        C1797   1.414   1_545  A
C50        C1403   1.462       .  S
C51         C229   1.465       .  S
C51          N56   1.351       .  A
C51         N636   1.362       .  A
N52          C53   1.358       .  A
N52         C635   1.359   1_545  A
C53         C249   1.465       .  S
C53          N54   1.356       .  A
N54          C55   1.351       .  A
C55         C827   1.434   1_545  S
C55         N640   1.352   1_545  A
N56         C639   1.347       .  A
C57         C225   1.479       .  S
C57          N58   1.362   1_545  A
C57          N62   1.360       .  A
N58         C643   1.364       .  A
C59         C286   1.485       .  S
C59          N60   1.360       .  A
C59         N642   1.368       .  A
N60         C645   1.353       .  A
C61         C237   1.425   1_565  S
C61          N62   1.354   1_565  A
C61         N644   1.350       .  A
C63         C262   1.489       .  S
C63          N64   1.377       .  A
C63          N68   1.355       .  A
N64          C65   1.379       .  A
C65         C221   1.489       .  S
C65          N66   1.356       .  A
N66          C67   1.347       .  A
C67         C234   1.428       .  S
C67          N68   1.346       .  A
C69         C218   1.472       .  S
C69          N70   1.362       .  A
C69          N74   1.357       .  A
N70          C71   1.356       .  A
C71         C236   1.431       .  S
C71        N1240   1.350       .  A
N72          C73   1.365       .  A
N72        C1239   1.361   1_455  A
C73         C274   1.481       .  S
C73        N1242   1.358   1_455  A
N74        C1241   1.357       .  A
C75         C290   1.483       .  S
C75          N76   1.360       .  A
C75          N80   1.360       .  A
N76          C77   1.359       .  A
C77         C242   1.451       .  S
C77          N78   1.363       .  A
N78          C79   1.366       .  A
C79         C214   1.485       .  S
C79          N80   1.360       .  A
C81         C209   1.484       .  S
C81          N82   1.358       .  A
C81          N86   1.363       .  A
N82        C1251   1.359   1_455  A
C83         C266   1.468       .  S
C83          N84   1.350       .  A
C83        N1250   1.371       .  A
N84        C1253   1.342       .  A
C85         C240   1.449       .  S
C85          N86   1.359       .  A
C85        N1252   1.361   1_455  A
Fe87        O103   2.083       .  S
Fe87         O93   2.041       .  S
Fe87        O100   2.042       .  S
Fe87         O92   2.078       .  S
Fe87         O98   1.965       .  S
Fe88         O91   2.083       .  S
Fe88         O95   2.056       .  S
Fe88         O99   2.080       .  S
Fe88        O104   2.051       .  S
Fe88         O98   1.965       .  S
Fe89        O107   2.065       .  S
Fe89         O94   2.096       .  S
Fe89        O101   2.098       .  S
Fe89         O90   2.066       .  S
Fe89         O98   1.961       .  S
O90          C97   1.267       .  A
O91         C105   1.272       .  A
O92          C97   1.267       .  A
O93          C96   1.270       .  A
O94         C106   1.279       .  A
O95         C108   1.266       .  A
C96         O101   1.281       .  A
C96         C217   1.470       .  S
C97         C198   1.486       .  S
O99         C102   1.272       .  A
O100        C102   1.269       .  A
C102        C201   1.468       .  S
O103        C108   1.270       .  A
O104        C106   1.266       .  A
C105        O107   1.267       .  A
C105        C213   1.486       .  S
C106        C206   1.481       .  S
C108        C226   1.477       .  S
Fe109       O125   2.074       .  S
Fe109       O115   2.108       .  S
Fe109       O122   2.105       .  S
Fe109       O114   2.084       .  S
Fe109       O120   1.978       .  S
Fe110       O113   2.037       .  S
Fe110       O117   2.066       .  S
Fe110       O121   2.055       .  S
Fe110       O126   2.059       .  S
Fe110       O120   1.973       .  S
Fe111       O129   2.087       .  S
Fe111       O116   2.061       .  S
Fe111       O123   2.058       .  S
Fe111       O112   2.069       .  S
Fe111       O120   1.980       .  S
O112        C119   1.271       .  A
O113        C127   1.261       .  A
O114        C119   1.276       .  A
O115        C118   1.274       .  A
O116        C128   1.266       .  A
O117        C130   1.270       .  A
C118        O123   1.267       .  A
C118        C189   1.490       .  S
C119        C210   1.481       .  S
O121        C124   1.262       .  A
O122        C124   1.277       .  A
C124        C222   1.496       .  S
O125        C130   1.275       .  A
O126        C128   1.272       .  A
C127        O129   1.271       .  A
C127        C193   1.472       .  S
C128        C230   1.476       .  S
C130        C186   1.478       .  S
C131        C716   1.411       .  A
C131       C1304   1.412   1_565  A
C131        C180   1.445       .  S
C132        C715   1.407       .  A
C132       C1301   1.414       .  A
C132        C177   1.448       .  S
C133        C134   1.417       .  A
C133       C1300   1.419   1_455  A
C133        C183   1.460       .  S
C134        C719   1.413       .  A
C134        C181   1.458       .  S
C135        C136   1.411       .  A
C135        C718   1.413   1_545  A
C135        C176   1.444       .  S
C136       C1299   1.403   1_455  A
C136        C173   1.452       .  S
C137        C202   1.466       .  S
C137        N138   1.354   1_545  A
C137        N142   1.357       .  A
N138        C723   1.354       .  A
C139        C277   1.479       .  S
C139        N140   1.362       .  A
C139        N722   1.353       .  A
N140        C725   1.356       .  A
C141        C182   1.433       .  S
C141        N142   1.354   1_565  A
C141        N724   1.357       .  A
C143        C194   1.481       .  S
C143        N148   1.362       .  A
C143        N728   1.359       .  A
N144        C145   1.362       .  A
N144        C727   1.359   1_545  A
C145        C246   1.471       .  S
C145        N146   1.355       .  A
N146        C147   1.352       .  A
C147        C179   1.428   1_545  S
C147        N732   1.353   1_545  A
N148        C731   1.354       .  A
C149        C197   1.484       .  S
C149        N150   1.360       .  A
C149        N154   1.364       .  A
N150       C1319   1.358       .  A
C151        C269   1.476       .  S
C151        N152   1.351       .  A
C151       N1318   1.368       .  A
N152       C1321   1.347       .  A
C153        C174   1.447       .  S
C153        N154   1.362       .  A
C153       N1320   1.360       .  A
C155        C253   1.484       .  S
C155        N156   1.360       .  A
C155        N160   1.365       .  A
N156        C157   1.351       .  A
C157        C175   1.428       .  S
C157        N158   1.350       .  A
N158        C159   1.354       .  A
C159        C185   1.473       .  S
C159        N160   1.366       .  A
C161        C190   1.496       .  S
C161        N162   1.367   1_455  A
C161        N166   1.362       .  A
N162       C1331   1.368       .  A
C163        C258   1.480       .  S
C163        N164   1.358       .  A
C163       N1330   1.362       .  A
N164       C1333   1.354       .  A
C165        C184   1.446       .  S
C165        N166   1.356       .  A
C165       N1332   1.358   1_455  A
C167        C281   1.493       .  S
C167        N168   1.368       .  A
C167        N172   1.364       .  A
N168        C169   1.368       .  A
C169        C205   1.477       .  S
C169        N170   1.351       .  A
N170        C171   1.348       .  A
C171        C178   1.431       .  S
C171        N172   1.357       .  A
C173       C1342   1.205       .  T
C174       C1341   1.213       .  T
C175        C176   1.202       .  T
C177        C178   1.204       .  T
C179        C180   1.202       .  T
C181        C766   1.211       .  T
C182        C765   1.205       .  T
C183        C184   1.212       .  T
C185        C186   1.339       .  D
C185        H187   1.087       .  S
C186        H188   1.087       .  S
C189        C190   1.352       .  D
C189        H191   1.087       .  S
C190        H192   1.086       .  S
C193        C194   1.342       .  D
C193        H195   1.087       .  S
C194        H196   1.086       .  S
C197        C198   1.347       .  D
C197        H199   1.087       .  S
C198        H200   1.087       .  S
C201        C202   1.341       .  D
C201        H203   1.087       .  S
C202        H204   1.087       .  S
C205        C206   1.338       .  D
C205        H207   1.087       .  S
C206        H208   1.087       .  S
C209        C210   1.344       .  D
C209        H211   1.087       .  S
C210        H212   1.087       .  S
C213        C214   1.346       .  D
C213        H215   1.087       .  S
C214        H216   1.087       .  S
C217        C218   1.339       .  D
C217        H219   1.088       .  S
C218        H220   1.087       .  S
C221        C222   1.341       .  D
C221        H223   1.087       .  S
C222        H224   1.087       .  S
C225        C226   1.346       .  D
C225        H227   1.087       .  S
C226        H228   1.087       .  S
C229        C230   1.339       .  D
C229        H231   1.087       .  S
C230        H232   1.087       .  S
C233        C234   1.202       .  T
C235       C1218   1.449       .  S
C235        C236   1.204       .  T
C237        C822   1.200       .  T
C238        C821   1.200       .  T
C239        C240   1.214       .  T
C241        C242   1.215       .  T
C243        C639   1.416       .  S
C243        C244   1.195       .  T
C245        C246   1.340       .  D
C245        H247   1.087       .  S
C246        H248   1.087       .  S
C249        C250   1.347       .  D
C249        H251   1.087       .  S
C250        H252   1.086       .  S
C253        C254   1.349       .  D
C253        H255   1.086       .  S
C254        H256   1.087       .  S
C257        C258   1.350       .  D
C257        H259   1.087       .  S
C258        H260   1.087       .  S
C261        C262   1.345       .  D
C261        H263   1.086       .  S
C262        H264   1.087       .  S
C265        C266   1.333       .  D
C265        H267   1.087       .  S
C266        H268   1.088       .  S
C269        C270   1.339       .  D
C269        H271   1.087       .  S
C270        H272   1.087       .  S
C273        C274   1.343       .  D
C273        H275   1.087       .  S
C274        H276   1.087       .  S
C277        C278   1.338       .  D
C277        H279   1.087       .  S
C278        H280   1.087       .  S
C281        C282   1.353       .  D
C281        H283   1.086       .  S
C282        H284   1.087       .  S
C285        C286   1.354       .  D
C285        H287   1.087       .  S
C286        H288   1.086       .  S
C289        C290   1.350       .  D
C289        H291   1.087       .  S
C290        H292   1.087       .  S
Fe293       O309   2.093       .  S
Fe293       O299   2.094       .  S
Fe294       O305   2.085       .  S
Fe294       O310   2.094       .  S
Fe294       O304   1.982       .  S
Fe295       O300   2.086       .  S
Fe295       O296   2.072       .  S
Fe295       O304   1.973       .  S
O296        C303   1.273       .  A
O297        C311   1.266       .  A
O298        C303   1.261       .  A
O299        C302   1.282       .  A
O300        C312   1.271       .  A
O301        C314   1.264       .  A
C302        O307   1.273       .  A
C302        C581   1.490       .  S
C303        C574   1.467       .  S
O305        C308   1.278       .  A
O306        C308   1.268       .  A
C308        C570   1.479       .  S
O309        C314   1.270       .  A
O310        C312   1.269       .  A
C311        O313   1.267       .  A
C311        C565   1.474       .  S
C312        C562   1.501       .  S
C314        C577   1.485       .  S
Fe315       O331   2.032   1_554  S
Fe315       O321   2.050   1_554  S
Fe316       O327   2.094       .  S
Fe316       O332   2.058       .  S
Fe316       O326   1.956       .  S
Fe317       O322   2.095       .  S
Fe317       O318   2.054       .  S
Fe317       O326   1.968       .  S
O318        C325   1.270       .  A
O319        C333   1.272       .  A
O320        C325   1.275       .  A
O321        C324   1.261       .  A
O322        C334   1.273       .  A
O323        C336   1.272       .  A
C324        O329   1.271       .  A
C324        C549   1.475       .  S
C325        C557   1.470       .  S
O327        C330   1.275       .  A
O328        C330   1.264       .  A
C330        C542   1.483       .  S
O331        C336   1.263       .  A
O332        C334   1.268       .  A
C333        O335   1.271       .  A
C333        C546   1.486       .  S
C334        C553   1.481       .  S
C336        C537   1.480       .  S
C337        C338   1.407       .  A
C337       C2094   1.405       .  A
C337        C536   1.448       .  S
C338       C1507   1.407       .  A
C338        C533   1.442       .  S
C339       C1506   1.407       .  A
C339        C340   1.404   1_655  A
C339        C531   1.455       .  S
C340        C925   1.410       .  A
C340        C530   1.446       .  S
C341        C924   1.407   1_545  A
C341        C342   1.406   1_455  A
C341        C525   1.447       .  S
C342       C2089   1.408   1_545  A
C342       C1695   1.450       .  S
C343        C521   1.478       .  S
C343        N928   1.366       .  A
C343        N348   1.355       .  A
N344        C927   1.351   1_545  A
N344        C345   1.353       .  A
C345        C541   1.477       .  S
C345        N346   1.368       .  A
N346        C347   1.367   1_545  A
C347       C1119   1.449       .  S
C347        N932   1.356       .  A
N348        C931   1.351       .  A
C349        C517   1.459       .  S
C349        N350   1.359       .  A
C349        N354   1.350       .  A
N350        C935   1.355   1_545  A
C351        C578   1.488       .  S
C351        N934   1.365       .  A
C351        N352   1.364       .  A
N352        C937   1.358       .  A
C353        C529   1.421       .  S
C353        N936   1.354   1_545  A
C353        N354   1.348       .  A
C355        C554   1.484       .  S
C355        N356   1.365       .  A
C355        N360   1.360       .  A
N356        C357   1.368       .  A
C357        C513   1.480       .  S
C357        N358   1.355       .  A
N358        C359   1.352       .  A
C359        C526   1.430       .  S
C359        N360   1.353       .  A
C361        C510   1.474       .  S
C361        N362   1.361       .  A
C361        N366   1.356       .  A
N362        C363   1.356       .  A
C363        C528   1.440       .  S
C363       N1532   1.357       .  A
N364       C1531   1.355   1_455  A
N364        C365   1.358       .  A
C365        C566   1.471       .  S
C365       N1534   1.356   1_455  A
N366       C1533   1.356       .  A
C367        C582   1.481       .  S
C367        N368   1.354       .  A
C367        N372   1.374       .  A
N368        C369   1.348       .  A
C369        C534   1.425       .  S
C369        N370   1.348       .  A
N370        C371   1.355       .  A
C371        C506   1.483       .  S
C371        N372   1.374       .  A
C373        C501   1.484       .  S
C373        N374   1.364   1_455  A
C373        N378   1.360       .  A
N374       C1543   1.363       .  A
C375        C558   1.471       .  S
C375       N1542   1.358       .  A
C375        N376   1.358       .  A
N376       C1545   1.352       .  A
C377        C532   1.437       .  S
C377       N1544   1.356       .  A
C377        N378   1.356   1_655  A
Fe379       O395   2.041       .  S
Fe379       O385   2.071       .  S
Fe379       O392   2.088       .  S
Fe379       O384   2.055       .  S
Fe379       O390   1.969       .  S
Fe380       O383   2.058       .  S
Fe380       O387   2.075       .  S
Fe380       O391   2.062       .  S
Fe380       O396   2.076       .  S
Fe380       O390   1.958       .  S
Fe381       O399   2.090       .  S
Fe381       O386   2.039       .  S
Fe381       O393   2.054       .  S
Fe381       O382   2.096       .  S
Fe381       O390   1.966       .  S
O382        C389   1.276       .  A
O383        C397   1.262       .  A
O384        C389   1.274       .  A
O385        C388   1.266       .  A
O386        C398   1.266       .  A
O387        C400   1.279       .  A
C388        O393   1.266       .  A
C388        C509   1.472       .  S
C389        C490   1.482       .  S
O391        C394   1.263       .  A
O392        C394   1.267       .  A
C394        C493   1.489       .  S
O395        C400   1.269       .  A
O396        C398   1.278       .  A
C397        O399   1.273       .  A
C397        C505   1.491       .  S
C398        C498   1.464       .  S
C400        C518   1.461       .  S
Fe401       O417   2.055       .  S
Fe401       O407   2.111       .  S
Fe401       O414   2.103       .  S
Fe401       O406   2.058       .  S
Fe401       O412   1.962       .  S
Fe402       O405   2.041       .  S
Fe402       O409   2.101       .  S
Fe402       O413   2.043       .  S
Fe402       O418   2.097       .  S
Fe402       O412   1.960       .  S
Fe403       O421   2.104       .  S
Fe403       O408   2.052       .  S
Fe403       O415   2.056       .  S
Fe403       O404   2.093       .  S
Fe403       O412   1.959       .  S
O404        C411   1.274       .  A
O405        C419   1.263       .  A
O406        C411   1.268       .  A
O407        C410   1.278       .  A
O408        C420   1.266       .  A
O409        C422   1.276       .  A
C410        O415   1.270       .  A
C410        C481   1.484       .  S
C411        C502   1.482       .  S
O413        C416   1.263       .  A
O414        C416   1.277       .  A
C416        C514   1.481       .  S
O417        C422   1.269       .  A
O418        C420   1.278       .  A
C419        O421   1.275       .  A
C419        C485   1.478       .  S
C420        C522   1.481       .  S
C422        C478   1.481       .  S
C423       C1008   1.412   1_545  A
C423       C1596   1.418       .  A
C423        C472   1.458       .  S
C424       C1007   1.406       .  A
C424       C1593   1.413       .  A
C424        C469   1.463       .  S
C425       C1592   1.411       .  A
C425        C426   1.416   1_655  A
C425        C475   1.456       .  S
C426       C1011   1.412       .  A
C426        C473   1.442       .  S
C427       C1010   1.412   1_545  A
C427        C428   1.410       .  A
C427        C468   1.456       .  S
C428       C1591   1.416   1_445  A
C428        C465   1.454       .  S
C429        C494   1.492       .  S
C429        N430   1.367   1_545  A
C429        N434   1.365       .  A
N430       C1015   1.366       .  A
C431        C569   1.475       .  S
C431       N1014   1.366       .  A
C431        N432   1.352       .  A
N432       C1017   1.349       .  A
C433        C474   1.437       .  S
C433       N1016   1.350       .  A
C433        N434   1.359   1_565  A
C435        C486   1.481       .  S
C435       N1020   1.358       .  A
C435        N440   1.365       .  A
N436       C1019   1.357   1_545  A
N436        C437   1.358       .  A
C437        C538   1.471       .  S
C437        N438   1.359       .  A
N438        C439   1.355       .  A
C439        C471   1.442       .  S
C439       N1024   1.357   1_545  A
N440       C1023   1.359       .  A
C441        C489   1.473       .  S
C441        N442   1.365       .  A
C441        N446   1.355       .  A
N442       C1611   1.365       .  A
C443        C561   1.505       .  S
C443       N1610   1.376   1_455  A
C443        N444   1.365       .  A
N444       C1613   1.358   1_455  A
C445        C466   1.433       .  S
C445       N1612   1.354       .  A
C445        N446   1.351       .  A
C447        C545   1.478       .  S
C447        N448   1.357       .  A
C447        N452   1.365       .  A
N448        C449   1.352       .  A
C449        C467   1.439       .  S
C449        N450   1.355       .  A
N450        C451   1.363       .  A
C451        C477   1.486       .  S
C451        N452   1.365       .  A
C453        C482   1.489       .  S
C453        N454   1.367   1_455  A
C453        N458   1.363       .  A
N454       C1623   1.368       .  A
C455        C550   1.465       .  S
C455       N1622   1.366       .  A
C455        N456   1.351       .  A
N456       C1625   1.346       .  A
C457        C476   1.440       .  S
C457       N1624   1.352       .  A
C457        N458   1.355   1_655  A
C459        C573   1.465       .  S
C459        N460   1.347       .  A
C459        N464   1.365       .  A
N460        C461   1.347       .  A
C461        C497   1.463       .  S
C461        N462   1.362       .  A
N462        C463   1.358       .  A
C463        C470   1.446       .  S
C463        N464   1.362       .  A
C465       C1634   1.208       .  T
C466       C1633   1.205       .  T
C467        C468   1.208       .  T
C469        C470   1.213       .  T
C471        C472   1.210       .  T
C473       C1058   1.201       .  T
C474       C1057   1.208       .  T
C475        C476   1.209       .  T
C477        C478   1.348       .  D
C477        H479   1.086       .  S
C478        H480   1.087       .  S
C481        C482   1.349       .  D
C481        H483   1.088       .  S
C482        H484   1.086       .  S
C485        C486   1.341       .  D
C485        H487   1.088       .  S
C486        H488   1.086       .  S
C489        C490   1.343       .  D
C489        H491   1.087       .  S
C490        H492   1.087       .  S
C493        C494   1.351       .  D
C493        H495   1.087       .  S
C494        H496   1.086       .  S
C497        C498   1.332       .  D
C497        H499   1.087       .  S
C498        H500   1.087       .  S
C501        C502   1.350       .  D
C501        H503   1.086       .  S
C502        H504   1.087       .  S
C505        C506   1.341       .  D
C505        H507   1.087       .  S
C506        H508   1.087       .  S
C509        C510   1.342       .  D
C509        H511   1.087       .  S
C510        H512   1.087       .  S
C513        C514   1.339       .  D
C513        H515   1.087       .  S
C514        H516   1.087       .  S
C517        C518   1.335       .  D
C517        H519   1.087       .  S
C518        H520   1.087       .  S
C521        C522   1.341       .  D
C521        H523   1.087       .  S
C522        H524   1.087       .  S
C525        C526   1.203       .  T
C527       C1510   1.457       .  S
C527        C528   1.209       .  T
C529       C1114   1.198       .  T
C530       C1113   1.203       .  T
C531        C532   1.207       .  T
C533        C534   1.200       .  T
C535        C931   1.430       .  S
C535        C536   1.203       .  T
C537        C538   1.350       .  D
C537        H539   1.087       .  S
C538        H540   1.087       .  S
C541        C542   1.339       .  D
C541        H543   1.087       .  S
C542        H544   1.087       .  S
C545        C546   1.346       .  D
C545        H547   1.087       .  S
C546        H548   1.087       .  S
C549        C550   1.336       .  D
C549        H551   1.087       .  S
C550        H552   1.087       .  S
C553        C554   1.349       .  D
C553        H555   1.088       .  S
C554        H556   1.085       .  S
C557        C558   1.343       .  D
C557        H559   1.087       .  S
C558        H560   1.087       .  S
C561        C562   1.361       .  D
C561        H563   1.086       .  S
C562        H564   1.087       .  S
C565        C566   1.344       .  D
C565        H567   1.087       .  S
C566        H568   1.087       .  S
C569        C570   1.338       .  D
C569        H571   1.087       .  S
C570        H572   1.087       .  S
C573        C574   1.332       .  D
C573        H575   1.087       .  S
C574        H576   1.087       .  S
C577        C578   1.348       .  D
C577        H579   1.087       .  S
C578        H580   1.086       .  S
C581        C582   1.340       .  D
C581        H583   1.086       .  S
C582        H584   1.087       .  S
Fe585       O601   2.035       .  S
Fe585       O591   2.062       .  S
Fe585       O890   2.076   1_554  S
Fe585       O882   2.034   1_554  S
Fe585       O888   1.955   1_554  S
Fe586       O881   2.055       .  S
Fe586       O885   2.045       .  S
Fe586       O597   2.062       .  S
Fe586       O602   2.047       .  S
Fe586       O596   1.966       .  S
Fe587       O897   2.060       .  S
Fe587       O592   2.084       .  S
Fe587       O891   2.086       .  S
Fe587       O588   2.062       .  S
Fe587       O596   1.967       .  S
O588        C595   1.267       .  A
O589       Fe878   2.079   1_554  S
O589        C603   1.275       .  A
O590       Fe877   2.069       .  S
O590        C595   1.267       .  A
O591        C594   1.271       .  A
O592        C604   1.276       .  A
O593       Fe878   2.094   1_554  S
O593        C606   1.274       .  A
C594        O599   1.263       .  A
C594        C873   1.470       .  S
C595        C866   1.477       .  S
O596       Fe877   1.965       .  S
O597        C600   1.267       .  A
O598       Fe877   2.061       .  S
O598        C600   1.271       .  A
O599       Fe879   2.049   1_554  S
C600        C862   1.469       .  S
O601        C606   1.259       .  A
O602        C604   1.265       .  A
C603        O605   1.274       .  A
C603        C857   1.479       .  S
C604        C854   1.474       .  S
O605       Fe879   2.079   1_554  S
C606        C869   1.472       .  S
Fe607       O623   2.076       .  S
Fe607       O613   2.067       .  S
Fe607       O912   2.065       .  S
Fe607       O904   2.077       .  S
Fe607       O910   1.969       .  S
Fe608       O903   2.042   1_554  S
Fe608       O907   2.042   1_554  S
Fe608       O619   2.044       .  S
Fe608       O624   2.037       .  S
Fe608       O618   1.974       .  S
Fe609       O919   2.087   1_554  S
Fe609       O614   2.110       .  S
Fe609       O913   2.104   1_554  S
Fe609       O610   2.077       .  S
Fe609       O618   1.972       .  S
O610        C617   1.274       .  A
O611       Fe900   2.067       .  S
O611        C625   1.268       .  A
O612       Fe899   2.090       .  S
O612        C617   1.273       .  A
O613        C616   1.268       .  A
O614        C626   1.278       .  A
O615       Fe900   2.048       .  S
O615        C628   1.266       .  A
C616        O621   1.266       .  A
C616        C841   1.480       .  S
C617        C849   1.488       .  S
O618       Fe899   1.976       .  S
O619        C622   1.259       .  A
O620       Fe899   2.066       .  S
O620        C622   1.268       .  A
O621       Fe901   2.065       .  S
C622        C834   1.471       .  S
O623        C628   1.275       .  A
O624        C626   1.266       .  A
C625        O627   1.269       .  A
C625        C838   1.472       .  S
C626        C845   1.474       .  S
O627       Fe901   2.057       .  S
C628        C829   1.470       .  S
C629        C630   1.407       .  A
C629       C1218   1.408   1_565  A
C629        C828   1.450       .  S
C630       C1799   1.405       .  A
C630        C825   1.442       .  S
C631       C1798   1.410       .  A
C631        C632   1.410   1_665  A
C631        C823   1.460   1_655  S
C632        C822   1.443       .  S
C633        C634   1.409       .  A
C633        C817   1.447       .  S
C634       C1213   1.403   1_455  A
C634       C1987   1.460       .  S
C635        C813   1.472       .  S
C635        N640   1.362       .  A
N636        C637   1.366       .  A
C637        C833   1.469       .  S
C637        N638   1.354       .  A
N638        C639   1.349       .  A
C641        C809   1.476       .  S
C641        N642   1.367       .  A
C641        N646   1.352       .  A
C643        C870   1.472       .  S
C643        N644   1.352       .  A
C645        C821   1.425       .  S
C645        N646   1.348       .  A
C647        C846   1.481       .  S
C647        N648   1.362       .  A
C647        N652   1.360       .  A
N648        C649   1.367       .  A
C649        C805   1.476       .  S
C649        N650   1.356       .  A
N650        C651   1.352       .  A
C651        C818   1.432       .  S
C651        N652   1.351       .  A
C653        C802   1.469       .  S
C653        N654   1.360       .  A
C653        N658   1.354       .  A
N654        C655   1.357       .  A
C655        C820   1.434       .  S
C655       N1824   1.355       .  A
N656       C1823   1.354       .  A
N656        C657   1.359       .  A
C657        C858   1.486       .  S
C657       N1826   1.360       .  A
N658       C1825   1.354       .  A
C659        C874   1.463       .  S
C659        N660   1.349       .  A
C659        N664   1.361       .  A
N660        C661   1.347       .  A
C661        C826   1.424       .  S
C661        N662   1.355       .  A
N662        C663   1.363       .  A
C663        C798   1.476       .  S
C663        N664   1.361       .  A
C665        C793   1.476       .  S
C665        N666   1.357       .  A
C665        N670   1.363       .  A
N666       C1835   1.355   1_455  A
C667        C850   1.495       .  S
C667       N1834   1.372       .  A
C667        N668   1.360       .  A
N668       C1837   1.352       .  A
C669        C824   1.443       .  S
C669       N1836   1.358   1_455  A
C669        N670   1.360       .  A
Fe671       O687   2.060       .  S
Fe671       O677   2.059       .  S
Fe671       O684   2.055       .  S
Fe671       O676   2.059       .  S
Fe671       O682   1.981       .  S
Fe672       O675   2.065       .  S
Fe672       O679   2.087       .  S
Fe672       O683   2.063       .  S
Fe672       O688   2.090       .  S
Fe672       O682   1.982       .  S
Fe673       O691   2.057       .  S
Fe673       O678   2.050       .  S
Fe673       O685   2.055       .  S
Fe673       O674   2.059       .  S
Fe673       O682   1.976       .  S
O674        C681   1.266       .  A
O675        C689   1.268       .  A
O676        C681   1.269       .  A
O677        C680   1.265       .  A
O678        C690   1.267       .  A
O679        C692   1.278       .  A
C680        O685   1.268       .  A
C680        C801   1.472       .  S
C681        C782   1.471       .  S
O683        C686   1.264       .  A
O684        C686   1.266       .  A
C686        C785   1.477       .  S
O687        C692   1.268       .  A
O688        C690   1.275       .  A
C689        O691   1.265       .  A
C689        C797   1.474       .  S
C690        C790   1.476       .  S
C692        C810   1.482       .  S
Fe693       O709   2.068       .  S
Fe693       O699   2.092       .  S
Fe693       O706   2.093       .  S
Fe693       O698   2.060       .  S
Fe693       O704   1.969       .  S
Fe694       O697   2.052       .  S
Fe694       O701   2.059       .  S
Fe694       O705   2.048       .  S
Fe694       O710   2.062       .  S
Fe694       O704   1.964       .  S
Fe695       O713   2.075       .  S
Fe695       O700   2.056       .  S
Fe695       O707   2.048       .  S
Fe695       O696   2.067       .  S
Fe695       O704   1.968       .  S
O696        C703   1.265       .  A
O697        C711   1.265       .  A
O698        C703   1.267       .  A
O699        C702   1.278       .  A
O700        C712   1.269       .  A
O701        C714   1.267       .  A
C702        O707   1.270       .  A
C702        C773   1.472       .  S
C703        C794   1.478       .  S
O705        C708   1.266       .  A
O706        C708   1.277       .  A
C708        C806   1.477       .  S
O709        C714   1.266       .  A
O710        C712   1.267       .  A
C711        O713   1.270       .  A
C711        C777   1.472       .  S
C712        C814   1.466       .  S
C714        C770   1.480       .  S
C715       C1888   1.406       .  A
C715        C764   1.450       .  S
C716       C1885   1.412       .  A
C716        C761   1.458       .  S
C717       C1884   1.409       .  A
C717        C718   1.408   1_655  A
C717        C767   1.461       .  S
C718        C765   1.449       .  S
C719        C720   1.411       .  A
C719        C760   1.454       .  S
C720       C1883   1.406   1_455  A
C720        C757   1.443       .  S
C721        C786   1.472       .  S
C721        N722   1.357       .  A
C721        N726   1.364       .  A
C723        C861   1.470       .  S
C723        N724   1.362       .  A
C725        C766   1.445       .  S
C725        N726   1.360       .  A
C727        C778   1.473       .  S
C727        N732   1.359       .  A
N728        C729   1.363       .  A
C729        C830   1.468       .  S
C729        N730   1.354       .  A
N730        C731   1.351       .  A
C731        C763   1.432       .  S
C733        C781   1.469       .  S
C733        N734   1.362       .  A
C733        N738   1.356       .  A
N734       C1903   1.357       .  A
C735        C853   1.472       .  S
C735       N1902   1.364       .  A
C735        N736   1.353       .  A
N736       C1905   1.350       .  A
C737        C758   1.435       .  S
C737       N1904   1.354       .  A
C737        N738   1.353       .  A
C739        C837   1.473       .  S
C739        N740   1.358       .  A
C739        N744   1.354       .  A
N740        C741   1.355       .  A
C741        C759   1.437       .  S
C741        N742   1.361       .  A
N742        C743   1.363       .  A
C743        C769   1.473       .  S
C743        N744   1.356       .  A
C745        C774   1.474       .  S
C745        N746   1.355   1_455  A
C745        N750   1.359       .  A
N746       C1915   1.357       .  A
C747        C842   1.480       .  S
C747       N1914   1.358       .  A
C747        N748   1.362       .  A
N748       C1917   1.359       .  A
C749        C768   1.444       .  S
C749       N1916   1.361       .  A
C749        N750   1.356   1_655  A
C751        C865   1.478       .  S
C751        N752   1.360       .  A
C751        N756   1.362       .  A
N752        C753   1.359       .  A
C753        C789   1.483       .  S
C753        N754   1.362       .  A
N754        C755   1.356       .  A
C755        C762   1.442       .  S
C755        N756   1.357       .  A
C757       C1926   1.200       .  T
C758       C1925   1.206       .  T
C759        C760   1.207       .  T
C761        C762   1.210       .  T
C763        C764   1.204       .  T
C767        C768   1.211       .  T
C769        C770   1.344       .  D
C769        H771   1.087       .  S
C770        H772   1.087       .  S
C773        C774   1.340       .  D
C773        H775   1.088       .  S
C774        H776   1.087       .  S
C777        C778   1.344       .  D
C777        H779   1.087       .  S
C778        H780   1.087       .  S
C781        C782   1.341       .  D
C781        H783   1.087       .  S
C782        H784   1.087       .  S
C785        C786   1.343       .  D
C785        H787   1.087       .  S
C786        H788   1.087       .  S
C789        C790   1.343       .  D
C789        H791   1.086       .  S
C790        H792   1.087       .  S
C793        C794   1.343       .  D
C793        H795   1.087       .  S
C794        H796   1.087       .  S
C797        C798   1.345       .  D
C797        H799   1.087       .  S
C798        H800   1.087       .  S
C801        C802   1.341       .  D
C801        H803   1.087       .  S
C802        H804   1.087       .  S
C805        C806   1.339       .  D
C805        H807   1.087       .  S
C806        H808   1.087       .  S
C809        C810   1.339       .  D
C809        H811   1.087       .  S
C810        H812   1.087       .  S
C813        C814   1.341       .  D
C813        H815   1.087       .  S
C814        H816   1.087       .  S
C817        C818   1.204       .  T
C819       C1802   1.451       .  S
C819        C820   1.205       .  T
C823        C824   1.211       .  T
C825        C826   1.200       .  T
C827        C828   1.205       .  T
C829        C830   1.338       .  D
C829        H831   1.087       .  S
C830        H832   1.087       .  S
C833        C834   1.337       .  D
C833        H835   1.087       .  S
C834        H836   1.087       .  S
C837        C838   1.342       .  D
C837        H839   1.087       .  S
C838        H840   1.087       .  S
C841        C842   1.345       .  D
C841        H843   1.087       .  S
C842        H844   1.087       .  S
C845        C846   1.343       .  D
C845        H847   1.089       .  S
C846        H848   1.085       .  S
C849        C850   1.356       .  D
C849        H851   1.087       .  S
C850        H852   1.086       .  S
C853        C854   1.338       .  D
C853        H855   1.087       .  S
C854        H856   1.087       .  S
C857        C858   1.347       .  D
C857        H859   1.087       .  S
C858        H860   1.086       .  S
C861        C862   1.338       .  D
C861        H863   1.087       .  S
C862        H864   1.087       .  S
C865        C866   1.345       .  D
C865        H867   1.087       .  S
C866        H868   1.087       .  S
C869        C870   1.336       .  D
C869        H871   1.087       .  S
C870        H872   1.087       .  S
C873        C874   1.337       .  D
C873        H875   1.085       .  S
C874        H876   1.087       .  S
Fe877       O893   2.075       .  S
Fe877       O883   2.060       .  S
Fe878       O889   2.079       .  S
Fe878       O894   2.095       .  S
Fe878       O888   1.958       .  S
Fe879       O884   2.046       .  S
Fe879       O880   2.083       .  S
Fe879       O888   1.953       .  S
O880        C887   1.275       .  A
O881        C895   1.267       .  A
O882        C887   1.261       .  A
O883        C886   1.271       .  A
O884        C896   1.263       .  A
O885        C898   1.263       .  A
C886        O891   1.276       .  A
C886       C1165   1.477       .  S
C887       C1158   1.469       .  S
O889        C892   1.277       .  A
O890        C892   1.272       .  A
C892       C1154   1.482       .  S
O893        C898   1.270       .  A
O894        C896   1.274       .  A
C895        O897   1.265       .  A
C895       C1149   1.472       .  S
C896       C1146   1.478       .  S
C898       C1161   1.468       .  S
Fe899       O915   2.083   1_554  S
Fe899       O905   2.064   1_554  S
Fe900       O911   2.071       .  S
Fe900       O916   2.044       .  S
Fe900       O910   1.975       .  S
Fe901       O906   2.067       .  S
Fe901       O902   2.053       .  S
Fe901       O910   1.973       .  S
O902        C909   1.269       .  A
O903        C917   1.260       .  A
O904        C909   1.275       .  A
O905        C908   1.267       .  A
O906        C918   1.269       .  A
O907        C920   1.266       .  A
C908        O913   1.278       .  A
C908       C1133   1.495       .  S
C909       C1141   1.471       .  S
O911        C914   1.267       .  A
O912        C914   1.267       .  A
C914       C1126   1.479       .  S
O915        C920   1.276       .  A
O916        C918   1.264       .  A
C917        O919   1.272       .  A
C917       C1130   1.476       .  S
C918       C1137   1.464       .  S
C920       C1121   1.470       .  S
C921        C922   1.420       .  A
C921       C1510   1.415   1_565  A
C921       C1120   1.463       .  S
C922       C2091   1.419       .  A
C922       C1117   1.460       .  S
C923       C2090   1.406   1_455  A
C923        C924   1.405       .  A
C923       C1115   1.452       .  S
C924       C1114   1.439   1_565  S
C925        C926   1.407       .  A
C925       C1109   1.436       .  S
C926       C1505   1.399   1_455  A
C926       C2279   1.450       .  S
C927       C1105   1.468       .  S
C927        N932   1.358       .  A
N928        C929   1.365       .  A
C929       C1125   1.483       .  S
C929        N930   1.360       .  A
N930        C931   1.353       .  A
C933       C1101   1.473       .  S
C933        N934   1.366       .  A
C933        N938   1.349       .  A
C935       C1162   1.467       .  S
C935        N936   1.360       .  A
C937       C1113   1.429       .  S
C937        N938   1.348       .  A
C939       C1138   1.468       .  S
C939        N940   1.357       .  A
C939        N944   1.356       .  A
N940        C941   1.363       .  A
C941       C1097   1.468       .  S
C941        N942   1.355       .  A
N942        C943   1.352       .  A
C943       C1110   1.421       .  S
C943        N944   1.348       .  A
C945       C1094   1.457       .  S
C945        N946   1.360       .  A
C945        N950   1.352       .  A
N946        C947   1.353       .  A
C947       C1112   1.432       .  S
C947       N2116   1.352       .  A
N948       C2115   1.355       .  A
N948        C949   1.357       .  A
C949       C1150   1.469       .  S
C949       N2118   1.355   1_455  A
N950       C2117   1.349       .  A
C951       C1166   1.479       .  S
C951        N952   1.358       .  A
C951        N956   1.358       .  A
N952        C953   1.355       .  A
C953       C1118   1.446       .  S
C953        N954   1.363       .  A
N954        C955   1.367       .  A
C955       C1090   1.487       .  S
C955        N956   1.360       .  A
C957       C1085   1.474       .  S
C957        N958   1.358       .  A
C957        N962   1.361       .  A
N958       C2127   1.357   1_455  A
C959       C1142   1.472       .  S
C959       N2126   1.355       .  A
C959        N960   1.359       .  A
N960       C2129   1.355       .  A
C961       C1116   1.434       .  S
C961       N2128   1.353   1_455  A
C961        N962   1.356       .  A
Fe963       O979   2.034       .  S
Fe963       O969   2.068       .  S
Fe963       O976   2.067       .  S
Fe963       O968   2.041       .  S
Fe963       O974   1.967       .  S
Fe964       O967   2.078       .  S
Fe964       O971   2.103       .  S
Fe964       O975   2.077       .  S
Fe964       O980   2.105       .  S
Fe964       O974   1.953       .  S
Fe965       O983   2.074       .  S
Fe965       O970   2.036       .  S
Fe965       O977   2.036       .  S
Fe965       O966   2.073       .  S
Fe965       O974   1.952       .  S
O966        C973   1.271       .  A
O967        C981   1.270       .  A
O968        C973   1.262       .  A
O969        C972   1.268       .  A
O970        C982   1.267       .  A
O971        C984   1.281       .  A
C972        O977   1.267       .  A
C972       C1093   1.460       .  S
C973       C1074   1.466       .  S
O975        C978   1.271       .  A
O976        C978   1.268       .  A
C978       C1077   1.482       .  S
O979        C984   1.263       .  A
O980        C982   1.283       .  A
C981        O983   1.267       .  A
C981       C1089   1.487       .  S
C982       C1082   1.472       .  S
C984       C1102   1.473       .  S
Fe985      O1001   2.056       .  S
Fe985       O991   2.077       .  S
Fe985       O998   2.078       .  S
Fe985       O990   2.055       .  S
Fe985       O996   1.961       .  S
Fe986       O989   2.045       .  S
Fe986       O993   2.064       .  S
Fe986       O997   2.039       .  S
Fe986      O1002   2.067       .  S
Fe986       O996   1.957       .  S
Fe987      O1005   2.082       .  S
Fe987       O992   2.056       .  S
Fe987       O999   2.058       .  S
Fe987       O988   2.070       .  S
Fe987       O996   1.959       .  S
O988        C995   1.267       .  A
O989       C1003   1.264       .  A
O990        C995   1.266       .  A
O991        C994   1.275       .  A
O992       C1004   1.270       .  A
O993       C1006   1.270       .  A
C994        O999   1.271       .  A
C994       C1065   1.471       .  S
C995       C1086   1.474       .  S
O997       C1000   1.264       .  A
O998       C1000   1.273       .  A
C1000      C1098   1.466       .  S
O1001      C1006   1.265       .  A
O1002      C1004   1.268       .  A
C1003      O1005   1.272       .  A
C1003      C1069   1.472       .  S
C1004      C1106   1.468       .  S
C1006      C1062   1.474       .  S
C1007      C2180   1.412       .  A
C1007      C1056   1.452       .  S
C1008      C2177   1.415       .  A
C1008      C1053   1.466       .  S
C1009      C2176   1.412   1_455  A
C1009      C1010   1.417       .  A
C1009      C1059   1.450       .  S
C1010      C1057   1.453       .  S
C1011      C1012   1.411       .  A
C1011      C1052   1.463       .  S
C1012      C2175   1.417   1_455  A
C1012      C1049   1.457       .  S
C1013      C1078   1.484       .  S
C1013      N1014   1.366       .  A
C1013      N1018   1.360       .  A
C1015      C1153   1.477       .  S
C1015      N1016   1.353       .  A
C1017      C1058   1.426       .  S
C1017      N1018   1.354       .  A
C1019      C1070   1.471       .  S
C1019      N1024   1.363       .  A
N1020      C1021   1.361       .  A
C1021      C1122   1.469       .  S
C1021      N1022   1.352       .  A
N1022      C1023   1.351       .  A
C1023      C1055   1.435       .  S
C1025      C1073   1.464       .  S
C1025      N1026   1.352       .  A
C1025      N1030   1.358       .  A
N1026      C2195   1.354       .  A
C1027      C1145   1.477       .  S
C1027      N2194   1.356   1_455  A
C1027      N1028   1.364       .  A
N1028      C2197   1.360       .  A
C1029      C1050   1.431       .  S
C1029      N2196   1.356       .  A
C1029      N1030   1.355       .  A
C1031      C1129   1.479       .  S
C1031      N1032   1.366       .  A
C1031      N1036   1.352       .  A
N1032      C1033   1.363       .  A
C1033      C1051   1.447       .  S
C1033      N1034   1.359       .  A
N1034      C1035   1.361       .  A
C1035      C1061   1.468       .  S
C1035      N1036   1.353       .  A
C1037      C1066   1.472       .  S
C1037      N1038   1.357   1_455  A
C1037      N1042   1.356       .  A
N1038      C2207   1.360       .  A
C1039      C1134   1.489       .  S
C1039      N2206   1.375       .  A
C1039      N1040   1.356       .  A
N1040      C2209   1.350       .  A
C1041      C1060   1.434       .  S
C1041      N2208   1.359       .  A
C1041      N1042   1.352   1_655  A
C1043      C1157   1.467       .  S
C1043      N1044   1.349       .  A
C1043      N1048   1.363       .  A
N1044      C1045   1.349       .  A
C1045      C1081   1.467       .  S
C1045      N1046   1.365       .  A
N1046      C1047   1.363       .  A
C1047      C1054   1.450       .  S
C1047      N1048   1.361       .  A
C1049      C2218   1.210       .  T
C1050      C2217   1.203       .  T
C1051      C1052   1.213       .  T
C1053      C1054   1.215       .  T
C1055      C1056   1.206       .  T
C1059      C1060   1.206   1_455  T
C1061      C1062   1.340       .  D
C1061      H1063   1.087       .  S
C1062      H1064   1.087       .  S
C1065      C1066   1.344       .  D
C1065      H1067   1.087       .  S
C1066      H1068   1.087       .  S
C1069      C1070   1.341       .  D
C1069      H1071   1.088       .  S
C1070      H1072   1.087       .  S
C1073      C1074   1.338       .  D
C1073      H1075   1.087       .  S
C1074      H1076   1.087       .  S
C1077      C1078   1.352       .  D
C1077      H1079   1.087       .  S
C1078      H1080   1.086       .  S
C1081      C1082   1.335       .  D
C1081      H1083   1.087       .  S
C1082      H1084   1.088       .  S
C1085      C1086   1.343       .  D
C1085      H1087   1.087       .  S
C1086      H1088   1.087       .  S
C1089      C1090   1.346       .  D
C1089      H1091   1.087       .  S
C1090      H1092   1.087       .  S
C1093      C1094   1.337       .  D
C1093      H1095   1.087       .  S
C1094      H1096   1.087       .  S
C1097      C1098   1.338       .  D
C1097      H1099   1.087       .  S
C1098      H1100   1.087       .  S
C1101      C1102   1.334       .  D
C1101      H1103   1.087       .  S
C1102      H1104   1.087       .  S
C1105      C1106   1.339       .  D
C1105      H1107   1.087       .  S
C1106      H1108   1.087       .  S
C1109      C1110   1.197       .  T
C1111      C2094   1.449       .  S
C1111      C1112   1.204       .  T
C1115      C1116   1.205       .  T
C1117      C1118   1.213       .  T
C1119      C1120   1.214       .  T
C1121      C1122   1.338       .  D
C1121      H1123   1.087       .  S
C1122      H1124   1.087       .  S
C1125      C1126   1.349       .  D
C1125      H1127   1.086       .  S
C1126      H1128   1.087       .  S
C1129      C1130   1.336       .  D
C1129      H1131   1.087       .  S
C1130      H1132   1.087       .  S
C1133      C1134   1.343       .  D
C1133      H1135   1.087       .  S
C1134      H1136   1.087       .  S
C1137      C1138   1.342       .  D
C1137      H1139   1.088       .  S
C1138      H1140   1.087       .  S
C1141      C1142   1.341       .  D
C1141      H1143   1.087       .  S
C1142      H1144   1.087       .  S
C1145      C1146   1.341       .  D
C1145      H1147   1.087       .  S
C1146      H1148   1.088       .  S
C1149      C1150   1.343       .  D
C1149      H1151   1.087       .  S
C1150      H1152   1.087       .  S
C1153      C1154   1.339       .  D
C1153      H1155   1.087       .  S
C1154      H1156   1.087       .  S
C1157      C1158   1.334       .  D
C1157      H1159   1.087       .  S
C1158      H1160   1.087       .  S
C1161      C1162   1.340       .  D
C1161      H1163   1.088       .  S
C1162      H1164   1.087       .  S
C1165      C1166   1.345       .  D
C1165      H1167   1.087       .  S
C1166      H1168   1.087       .  S
Fe1169     O1185   2.056       .  S
Fe1169     O1175   2.121       .  S
Fe1169     O1474   2.124   1_554  S
Fe1169     O1466   2.055   1_554  S
Fe1169     O1472   1.962       .  S
Fe1170     O1465   2.069       .  S
Fe1170     O1469   2.101       .  S
Fe1170     O1181   2.070       .  S
Fe1170     O1186   2.099       .  S
Fe1170     O1180   1.962       .  S
Fe1171     O1481   2.069       .  S
Fe1171     O1176   2.052       .  S
Fe1171     O1475   2.050       .  S
Fe1171     O1172   2.078       .  S
Fe1171     O1180   1.966       .  S
O1172      C1179   1.271       .  A
O1173     Fe1462   2.037       .  S
O1173      C1187   1.268       .  A
O1174     Fe1461   2.038       .  S
O1174      C1179   1.262       .  A
O1175      C1178   1.282       .  A
O1176      C1188   1.265       .  A
O1177     Fe1462   2.069       .  S
O1177      C1190   1.266       .  A
C1178      O1183   1.265       .  A
C1178      C1457   1.499       .  S
C1179      C1450   1.467       .  S
O1180     Fe1461   1.956       .  S
O1181      C1184   1.275       .  A
O1182     Fe1461   2.076       .  S
O1182      C1184   1.272       .  A
O1183     Fe1463   2.059   1_554  S
C1184      C1446   1.478       .  S
O1185      C1190   1.267       .  A
O1186      C1188   1.274       .  A
C1187      O1189   1.273       .  A
C1187      C1441   1.467       .  S
C1188      C1438   1.482       .  S
O1189     Fe1463   2.082   1_554  S
C1190      C1453   1.474       .  S
Fe1191     O1207   2.082       .  S
Fe1191     O1197   2.085       .  S
Fe1191     O1496   2.092       .  S
Fe1191     O1488   2.079       .  S
Fe1191     O1494   1.990       .  S
Fe1192     O1487   2.039   1_554  S
Fe1192     O1491   2.038   1_554  S
Fe1192     O1203   2.041       .  S
Fe1192     O1208   2.030       .  S
Fe1192     O1202   1.972       .  S
Fe1193     O1503   2.074       .  S
Fe1193     O1198   2.106   1_556  S
Fe1193     O1497   2.092       .  S
Fe1193     O1194   2.069   1_556  S
Fe1193     O1202   1.978   1_556  S
O1194      C1201   1.270       .  A
O1195     Fe1484   2.043       .  S
O1195      C1209   1.263       .  A
O1196     Fe1483   2.081       .  S
O1196      C1201   1.274       .  A
O1197      C1200   1.272       .  A
O1198      C1210   1.276       .  A
O1199     Fe1484   2.052       .  S
O1199      C1212   1.265       .  A
C1200      O1205   1.274       .  A
C1200      C1425   1.492       .  S
C1201      C1433   1.484       .  S
O1202     Fe1483   1.977       .  S
O1203      C1206   1.261       .  A
O1204     Fe1483   2.072       .  S
O1204      C1206   1.270       .  A
O1205     Fe1485   2.085       .  S
C1206      C1418   1.469       .  S
O1207      C1212   1.272       .  A
O1208      C1210   1.263       .  A
C1209      O1211   1.273       .  A
C1209      C1422   1.477       .  S
C1210      C1429   1.473       .  S
O1211     Fe1485   2.093       .  S
C1212      C1413   1.476       .  S
C1213      C1214   1.409       .  A
C1213      C1412   1.443       .  S
C1214      C1409   1.439       .  S
C1215      C1216   1.408       .  A
C1215      C1407   1.427       .  S
C1216      C1801   1.406       .  A
C1216      C1406   1.454       .  S
C1217      C1800   1.411       .  A
C1217      C1218   1.411       .  A
C1217      C1401   1.450       .  S
C1219      C1397   1.467       .  S
C1219      N1804   1.362       .  A
C1219      N1224   1.352       .  A
N1220      C1803   1.360   1_545  A
N1220      C1221   1.363       .  A
C1221      C1417   1.470       .  S
C1221      N1222   1.352       .  A
N1222      C1223   1.350   1_545  A
C1223      C1995   1.428       .  S
C1223      N1808   1.355       .  A
N1224      C1807   1.348       .  A
C1225      C1393   1.458       .  S
C1225      N1226   1.356       .  A
C1225      N1230   1.350       .  A
N1226      C1811   1.355   1_545  A
C1227      C1454   1.473       .  S
C1227      N1810   1.356       .  A
C1227      N1228   1.363       .  A
N1228      C1813   1.359       .  A
C1229      C1405   1.429       .  S
C1229      N1812   1.359   1_545  A
C1229      N1230   1.349       .  A
C1231      C1430   1.480       .  S
C1231      N1232   1.360       .  A
C1231      N1236   1.360       .  A
N1232      C1233   1.365       .  A
C1233      C1389   1.475       .  S
C1233      N1234   1.358       .  A
N1234      C1235   1.354       .  A
C1235      C1402   1.435       .  S
C1235      N1236   1.352       .  A
C1237      C1386   1.478       .  S
C1237      N1238   1.361       .  A
C1237      N1242   1.357       .  A
N1238      C1239   1.355       .  A
C1239      C1404   1.446       .  S
N1240      C1241   1.356       .  A
C1241      C1442   1.467       .  S
C1243      C1458   1.492       .  S
C1243      N1244   1.353       .  A
C1243      N1248   1.381       .  A
N1244      C1245   1.345       .  A
C1245      C1410   1.422       .  S
C1245      N1246   1.346       .  A
N1246      C1247   1.355       .  A
C1247      C1382   1.494       .  S
C1247      N1248   1.381       .  A
C1249      C1377   1.484       .  S
C1249      N1250   1.369       .  A
C1249      N1254   1.355       .  A
C1251      C1434   1.482       .  S
C1251      N1252   1.364       .  A
C1253      C1408   1.410       .  S
C1253      N1254   1.343       .  A
Fe1255     O1271   2.052       .  S
Fe1255     O1261   2.070       .  S
Fe1255     O1268   2.089       .  S
Fe1255     O1260   2.058       .  S
Fe1255     O1266   1.971       .  S
Fe1256     O1259   2.052       .  S
Fe1256     O1263   2.053       .  S
Fe1256     O1267   2.044       .  S
Fe1256     O1272   2.061       .  S
Fe1256     O1266   1.966       .  S
Fe1257     O1275   2.113       .  S
Fe1257     O1262   2.058       .  S
Fe1257     O1269   2.069       .  S
Fe1257     O1258   2.110       .  S
Fe1257     O1266   1.970       .  S
O1258      C1265   1.275       .  A
O1259      C1273   1.259       .  A
O1260      C1265   1.267       .  A
O1261      C1264   1.271       .  A
O1262      C1274   1.275       .  A
O1263      C1276   1.272       .  A
C1264      O1269   1.274       .  A
C1264      C1385   1.473       .  S
C1265      C1366   1.488       .  S
O1267      C1270   1.261       .  A
O1268      C1270   1.270       .  A
C1270      C1369   1.479       .  S
O1271      C1276   1.267       .  A
O1272      C1274   1.272       .  A
C1273      O1275   1.276       .  A
C1273      C1381   1.500       .  S
C1274      C1374   1.464       .  S
C1276      C1394   1.463       .  S
Fe1277     O1293   2.057       .  S
Fe1277     O1283   2.091       .  S
Fe1277     O1290   2.087       .  S
Fe1277     O1282   2.054       .  S
Fe1277     O1288   1.972       .  S
Fe1278     O1281   2.040       .  S
Fe1278     O1285   2.073       .  S
Fe1278     O1289   2.044       .  S
Fe1278     O1294   2.065       .  S
Fe1278     O1288   1.959       .  S
Fe1279     O1297   2.107       .  S
Fe1279     O1284   2.057       .  S
Fe1279     O1291   2.057       .  S
Fe1279     O1280   2.084       .  S
Fe1279     O1288   1.963       .  S
O1280      C1287   1.275       .  A
O1281      C1295   1.264       .  A
O1282      C1287   1.267       .  A
O1283      C1286   1.274       .  A
O1284      C1296   1.265       .  A
O1285      C1298   1.270       .  A
C1286      O1291   1.268       .  A
C1286      C1357   1.481       .  S
C1287      C1378   1.471       .  S
O1289      C1292   1.262       .  A
O1290      C1292   1.273       .  A
C1292      C1390   1.476       .  S
O1293      C1298   1.271       .  A
O1294      C1296   1.271       .  A
C1295      O1297   1.276       .  A
C1295      C1361   1.479       .  S
C1296      C1398   1.476       .  S
C1298      C1354   1.474       .  S
C1299      C1884   1.409   1_545  A
C1299      C1348   1.456       .  S
C1300      C1883   1.411       .  A
C1300      C1345   1.442       .  S
C1301      C1302   1.413       .  A
C1301      C1351   1.452       .  S
C1302      C1887   1.410       .  A
C1302      C1349   1.455       .  S
C1303      C1886   1.414   1_545  A
C1303      C1304   1.413       .  A
C1303      C1344   1.451       .  S
C1304      C1341   1.463       .  S
C1305      C1370   1.485       .  S
C1305      N1306   1.361   1_545  A
C1305      N1310   1.364       .  A
N1306      C1891   1.363       .  A
C1307      C1445   1.476       .  S
C1307      N1890   1.363       .  A
C1307      N1308   1.354       .  A
N1308      C1893   1.352       .  A
C1309      C1350   1.439       .  S
C1309      N1892   1.353       .  A
C1309      N1310   1.357   1_565  A
C1311      C1362   1.485       .  S
C1311      N1896   1.359       .  A
C1311      N1316   1.364       .  A
N1312      C1895   1.358   1_545  A
N1312      C1313   1.364       .  A
C1313      C1414   1.480       .  S
C1313      N1314   1.360       .  A
N1314      C1315   1.357       .  A
C1315      C1347   1.439       .  S
C1315      N1900   1.354   1_545  A
N1316      C1899   1.359       .  A
C1317      C1365   1.492       .  S
C1317      N1318   1.368   1_655  A
C1317      N1322   1.365       .  A
C1319      C1437   1.482       .  S
C1319      N1320   1.362       .  A
C1321      C1342   1.433       .  S
C1321      N1322   1.357   1_455  A
C1323      C1421   1.483       .  S
C1323      N1324   1.363       .  A
C1323      N1328   1.360       .  A
N1324      C1325   1.357       .  A
C1325      C1343   1.436       .  S
C1325      N1326   1.352       .  A
N1326      C1327   1.355       .  A
C1327      C1353   1.470       .  S
C1327      N1328   1.362       .  A
C1329      C1358   1.482       .  S
C1329      N1330   1.361       .  A
C1329      N1334   1.362       .  A
C1331      C1426   1.494       .  S
C1331      N1332   1.363       .  A
C1333      C1352   1.437       .  S
C1333      N1334   1.357       .  A
C1335      C1449   1.471       .  S
C1335      N1336   1.355       .  A
C1335      N1340   1.360       .  A
N1336      C1337   1.359       .  A
C1337      C1373   1.462       .  S
C1337      N1338   1.353       .  A
N1338      C1339   1.351       .  A
C1339      C1346   1.426       .  S
C1339      N1340   1.354       .  A
C1343      C1344   1.207       .  T
C1345      C1346   1.201       .  T
C1347      C1348   1.208       .  T
C1349      C1934   1.208       .  T
C1350      C1933   1.208       .  T
C1351      C1352   1.207       .  T
C1353      C1354   1.341       .  D
C1353      H1355   1.087       .  S
C1354      H1356   1.087       .  S
C1357      C1358   1.346       .  D
C1357      H1359   1.087       .  S
C1358      H1360   1.086       .  S
C1361      C1362   1.342       .  D
C1361      H1363   1.087       .  S
C1362      H1364   1.086       .  S
C1365      C1366   1.351       .  D
C1365      H1367   1.086       .  S
C1366      H1368   1.088       .  S
C1369      C1370   1.343       .  D
C1369      H1371   1.087       .  S
C1370      H1372   1.084       .  S
C1373      C1374   1.338       .  D
C1373      H1375   1.087       .  S
C1374      H1376   1.087       .  S
C1377      C1378   1.354       .  D
C1377      H1379   1.086       .  S
C1378      H1380   1.087       .  S
C1381      C1382   1.341       .  D
C1381      H1383   1.087       .  S
C1382      H1384   1.087       .  S
C1385      C1386   1.342       .  D
C1385      H1387   1.087       .  S
C1386      H1388   1.087       .  S
C1389      C1390   1.340       .  D
C1389      H1391   1.087       .  S
C1390      H1392   1.087       .  S
C1393      C1394   1.338       .  D
C1393      H1395   1.087       .  S
C1394      H1396   1.087       .  S
C1397      C1398   1.340       .  D
C1397      H1399   1.087       .  S
C1398      H1400   1.086       .  S
C1401      C1402   1.206       .  T
C1403      C1404   1.212       .  T
C1405      C1990   1.203       .  T
C1406      C1989   1.207       .  T
C1407      C1408   1.191       .  T
C1409      C1410   1.198       .  T
C1411      C1807   1.424       .  S
C1411      C1412   1.200       .  T
C1413      C1414   1.342       .  D
C1413      H1415   1.087       .  S
C1414      H1416   1.086       .  S
C1417      C1418   1.336       .  D
C1417      H1419   1.087       .  S
C1418      H1420   1.087       .  S
C1421      C1422   1.342       .  D
C1421      H1423   1.085       .  S
C1422      H1424   1.087       .  S
C1425      C1426   1.354       .  D
C1425      H1427   1.087       .  S
C1426      H1428   1.086       .  S
C1429      C1430   1.341       .  D
C1429      H1431   1.089       .  S
C1430      H1432   1.085       .  S
C1433      C1434   1.346       .  D
C1433      H1435   1.087       .  S
C1434      H1436   1.087       .  S
C1437      C1438   1.344       .  D
C1437      H1439   1.086       .  S
C1438      H1440   1.087       .  S
C1441      C1442   1.345       .  D
C1441      H1443   1.087       .  S
C1442      H1444   1.087       .  S
C1445      C1446   1.341       .  D
C1445      H1447   1.087       .  S
C1446      H1448   1.087       .  S
C1449      C1450   1.339       .  D
C1449      H1451   1.085       .  S
C1450      H1452   1.087       .  S
C1453      C1454   1.342       .  D
C1453      H1455   1.087       .  S
C1454      H1456   1.087       .  S
C1457      C1458   1.340       .  D
C1457      H1459   1.085       .  S
C1458      H1460   1.087       .  S
Fe1461     O1477   2.047       .  S
Fe1461     O1467   2.064       .  S
Fe1462     O1473   2.036   1_554  S
Fe1462     O1478   2.080   1_554  S
Fe1462     O1472   1.966       .  S
Fe1463     O1468   2.062       .  S
Fe1463     O1464   2.085       .  S
Fe1463     O1472   1.963   1_556  S
O1464      C1471   1.275       .  A
O1465      C1479   1.274       .  A
O1466      C1471   1.266       .  A
O1467      C1470   1.272       .  A
O1468      C1480   1.266       .  A
O1469      C1482   1.275       .  A
C1470      O1475   1.264       .  A
C1470      C1749   1.469       .  S
C1471      C1742   1.480       .  S
O1473      C1476   1.267       .  A
O1474      C1476   1.284       .  A
C1476      C1738   1.480       .  S
O1477      C1482   1.261       .  A
O1478      C1480   1.269       .  A
C1479      O1481   1.271       .  A
C1479      C1733   1.472       .  S
C1480      C1730   1.480       .  S
C1482      C1745   1.485       .  S
Fe1483     O1499   2.083   1_554  S
Fe1483     O1489   2.063   1_554  S
Fe1484     O1495   2.048       .  S
Fe1484     O1500   2.046       .  S
Fe1484     O1494   1.975       .  S
Fe1485     O1490   2.096       .  S
Fe1485     O1486   2.075       .  S
Fe1485     O1494   1.984       .  S
O1486      C1493   1.272       .  A
O1487      C1501   1.261       .  A
O1488      C1493   1.273       .  A
O1489      C1492   1.267       .  A
O1490      C1502   1.274       .  A
O1491      C1504   1.263       .  A
C1492      O1497   1.276       .  A
C1492      C1717   1.488       .  S
C1493      C1725   1.483       .  S
O1495      C1498   1.262       .  A
O1496      C1498   1.273       .  A
C1498      C1710   1.481       .  S
O1499      C1504   1.273       .  A
O1500      C1502   1.265       .  A
C1501      O1503   1.270       .  A
C1501      C1714   1.469       .  S
C1502      C1721   1.479       .  S
C1504      C1705   1.470       .  S
C1505      C1506   1.406       .  A
C1505      C1704   1.449       .  S
C1506      C1701   1.430       .  S
C1507      C1508   1.406       .  A
C1507      C1699   1.448       .  S
C1508      C2093   1.406       .  A
C1508      C1698   1.449       .  S
C1509      C2092   1.411   1_545  A
C1509      C1510   1.415       .  A
C1509      C1693   1.450       .  S
C1511      C1689   1.472       .  S
C1511      N2096   1.364       .  A
C1511      N1516   1.350       .  A
N1512      C2095   1.365   1_545  A
N1512      C1513   1.368       .  A
C1513      C1709   1.481       .  S
C1513      N1514   1.356       .  A
N1514      C1515   1.353       .  A
C1515      C2287   1.433   1_545  S
C1515      N2100   1.352   1_545  A
N1516      C2099   1.348       .  A
C1517      C1685   1.498       .  S
C1517      N1518   1.367   1_545  A
C1517      N1522   1.366       .  A
N1518      C2103   1.367       .  A
C1519      C1746   1.482       .  S
C1519      N2102   1.369       .  A
C1519      N1520   1.355       .  A
N1520      C2105   1.351       .  A
C1521      C1697   1.449       .  S
C1521      N2104   1.355       .  A
C1521      N1522   1.358   1_565  A
C1523      C1722   1.488       .  S
C1523      N1524   1.364       .  A
C1523      N1528   1.361       .  A
N1524      C1525   1.367       .  A
C1525      C1681   1.477       .  S
C1525      N1526   1.356       .  A
N1526      C1527   1.352       .  A
C1527      C1694   1.434       .  S
C1527      N1528   1.353       .  A
C1529      C1678   1.473       .  S
C1529      N1530   1.360       .  A
C1529      N1534   1.356       .  A
N1530      C1531   1.357       .  A
C1531      C1696   1.432       .  S
N1532      C1533   1.362       .  A
C1533      C1734   1.476       .  S
C1535      C1750   1.463       .  S
C1535      N1536   1.351       .  A
C1535      N1540   1.364       .  A
N1536      C1537   1.345       .  A
C1537      C1702   1.413       .  S
C1537      N1538   1.348       .  A
N1538      C1539   1.353       .  A
C1539      C1674   1.466       .  S
C1539      N1540   1.365       .  A
C1541      C1669   1.473       .  S
C1541      N1542   1.359       .  A
C1541      N1546   1.359       .  A
C1543      C1726   1.486       .  S
C1543      N1544   1.361       .  A
C1545      C1700   1.430       .  S
C1545      N1546   1.353       .  A
Fe1547     O1563   2.110       .  S
Fe1547     O1553   2.064       .  S
Fe1547     O1560   2.066       .  S
Fe1547     O1552   2.111       .  S
Fe1547     O1558   1.977       .  S
Fe1548     O1551   2.050       .  S
Fe1548     O1555   2.064       .  S
Fe1548     O1559   2.046       .  S
Fe1548     O1564   2.069       .  S
Fe1548     O1558   1.975       .  S
Fe1549     O1567   2.067       .  S
Fe1549     O1554   2.055       .  S
Fe1549     O1561   2.056       .  S
Fe1549     O1550   2.071       .  S
Fe1549     O1558   1.974       .  S
O1550      C1557   1.271       .  A
O1551      C1565   1.263       .  A
O1552      C1557   1.282       .  A
O1553      C1556   1.265       .  A
O1554      C1566   1.264       .  A
O1555      C1568   1.271       .  A
C1556      O1561   1.266       .  A
C1556      C1677   1.475       .  S
C1557      C1658   1.497       .  S
O1559      C1562   1.261       .  A
O1560      C1562   1.269       .  A
C1562      C1661   1.471       .  S
O1563      C1568   1.279       .  A
O1564      C1566   1.270       .  A
C1565      O1567   1.272       .  A
C1565      C1673   1.474       .  S
C1566      C1666   1.476       .  S
C1568      C1686   1.489       .  S
Fe1569     O1585   2.038       .  S
Fe1569     O1575   2.094       .  S
Fe1569     O1582   2.089       .  S
Fe1569     O1574   2.047       .  S
Fe1569     O1580   1.957       .  S
Fe1570     O1573   2.056       .  S
Fe1570     O1577   2.102       .  S
Fe1570     O1581   2.051       .  S
Fe1570     O1586   2.097       .  S
Fe1570     O1580   1.949       .  S
Fe1571     O1589   2.085       .  S
Fe1571     O1576   2.045       .  S
Fe1571     O1583   2.046       .  S
Fe1571     O1572   2.078       .  S
Fe1571     O1580   1.957       .  S
O1572      C1579   1.270       .  A
O1573      C1587   1.265       .  A
O1574      C1579   1.266       .  A
O1575      C1578   1.275       .  A
O1576      C1588   1.266       .  A
O1577      C1590   1.279       .  A
C1578      O1583   1.268       .  A
C1578      C1649   1.471       .  S
C1579      C1670   1.471       .  S
O1581      C1584   1.264       .  A
O1582      C1584   1.274       .  A
C1584      C1682   1.480       .  S
O1585      C1590   1.264       .  A
O1586      C1588   1.280       .  A
C1587      O1589   1.271       .  A
C1587      C1653   1.478       .  S
C1588      C1690   1.477       .  S
C1590      C1646   1.476       .  S
C1591      C2176   1.412       .  A
C1591      C1640   1.448       .  S
C1592      C2175   1.412       .  A
C1592      C1637   1.465       .  S
C1593      C1594   1.414       .  A
C1593      C1643   1.435       .  S
C1594      C2179   1.412       .  A
C1594      C1641   1.465       .  S
C1595      C2178   1.416       .  A
C1595      C1596   1.416       .  A
C1595      C1636   1.466       .  S
C1596      C1633   1.449       .  S
C1597      C1662   1.467       .  S
C1597      N1598   1.350   1_545  A
C1597      N1602   1.360       .  A
N1598      C2183   1.352       .  A
C1599      C1737   1.482       .  S
C1599      N2182   1.355       .  A
C1599      N1600   1.366       .  A
N1600      C2185   1.363       .  A
C1601      C1642   1.445       .  S
C1601      N2184   1.364       .  A
C1601      N1602   1.359   1_565  A
C1603      C1654   1.480       .  S
C1603      N2188   1.361       .  A
C1603      N1608   1.362       .  A
N1604      C2187   1.358   1_545  A
N1604      C1605   1.362       .  A
C1605      C1706   1.472       .  S
C1605      N1606   1.354       .  A
N1606      C1607   1.353   1_545  A
C1607      C1639   1.432       .  S
C1607      N2192   1.357       .  A
N1608      C2191   1.356       .  A
C1609      C1657   1.491       .  S
C1609      N1610   1.374       .  A
C1609      N1614   1.353       .  A
C1611      C1729   1.482       .  S
C1611      N1612   1.361       .  A
C1613      C1634   1.438   1_655  S
C1613      N1614   1.349       .  A
C1615      C1713   1.472       .  S
C1615      N1616   1.362       .  A
C1615      N1620   1.351       .  A
N1616      C1617   1.357       .  A
C1617      C1635   1.451       .  S
C1617      N1618   1.363       .  A
N1618      C1619   1.367       .  A
C1619      C1645   1.474       .  S
C1619      N1620   1.353       .  A
C1621      C1650   1.477       .  S
C1621      N1622   1.365       .  A
C1621      N1626   1.358       .  A
C1623      C1718   1.483       .  S
C1623      N1624   1.357       .  A
C1625      C1644   1.419       .  S
C1625      N1626   1.348       .  A
C1627      C1741   1.476       .  S
C1627      N1628   1.352       .  A
C1627      N1632   1.365       .  A
N1628      C1629   1.352       .  A
C1629      C1665   1.472       .  S
C1629      N1630   1.362       .  A
N1630      C1631   1.361       .  A
C1631      C1638   1.448       .  S
C1631      N1632   1.364       .  A
C1635      C1636   1.215       .  T
C1637      C1638   1.214       .  T
C1639      C1640   1.204       .  T
C1641      C2226   1.215       .  T
C1642      C2225   1.212       .  T
C1643      C1644   1.197       .  T
C1645      C1646   1.336       .  D
C1645      H1647   1.087       .  S
C1646      H1648   1.087       .  S
C1649      C1650   1.346       .  D
C1649      H1651   1.088       .  S
C1650      H1652   1.086       .  S
C1653      C1654   1.346       .  D
C1653      H1655   1.087       .  S
C1654      H1656   1.087       .  S
C1657      C1658   1.342       .  D
C1657      H1659   1.087       .  S
C1658      H1660   1.087       .  S
C1661      C1662   1.338       .  D
C1661      H1663   1.087       .  S
C1662      H1664   1.087       .  S
C1665      C1666   1.340       .  D
C1665      H1667   1.087       .  S
C1666      H1668   1.087       .  S
C1669      C1670   1.345       .  D
C1669      H1671   1.087       .  S
C1670      H1672   1.087       .  S
C1673      C1674   1.337       .  D
C1673      H1675   1.087       .  S
C1674      H1676   1.087       .  S
C1677      C1678   1.343       .  D
C1677      H1679   1.087       .  S
C1678      H1680   1.087       .  S
C1681      C1682   1.341       .  D
C1681      H1683   1.087       .  S
C1682      H1684   1.087       .  S
C1685      C1686   1.349       .  D
C1685      H1687   1.086       .  S
C1686      H1688   1.087       .  S
C1689      C1690   1.337       .  D
C1689      H1691   1.087       .  S
C1690      H1692   1.087       .  S
C1693      C1694   1.205       .  T
C1695      C1696   1.204       .  T
C1697      C2282   1.214       .  T
C1698      C2281   1.204       .  T
C1699      C1700   1.203       .  T
C1701      C1702   1.193       .  T
C1703      C2099   1.430       .  S
C1703      C1704   1.204       .  T
C1705      C1706   1.338       .  D
C1705      H1707   1.087       .  S
C1706      H1708   1.087       .  S
C1709      C1710   1.340       .  D
C1709      H1711   1.087       .  S
C1710      H1712   1.087       .  S
C1713      C1714   1.336       .  D
C1713      H1715   1.087       .  S
C1714      H1716   1.087       .  S
C1717      C1718   1.343       .  D
C1717      H1719   1.087       .  S
C1718      H1720   1.087       .  S
C1721      C1722   1.345       .  D
C1721      H1723   1.086       .  S
C1722      H1724   1.080       .  S
C1725      C1726   1.349       .  D
C1725      H1727   1.087       .  S
C1726      H1728   1.086       .  S
C1729      C1730   1.349       .  D
C1729      H1731   1.086       .  S
C1730      H1732   1.087       .  S
C1733      C1734   1.340       .  D
C1733      H1735   1.087       .  S
C1734      H1736   1.087       .  S
C1737      C1738   1.339       .  D
C1737      H1739   1.086       .  S
C1738      H1740   1.088       .  S
C1741      C1742   1.339       .  D
C1741      H1743   1.087       .  S
C1742      H1744   1.087       .  S
C1745      C1746   1.341       .  D
C1745      H1747   1.087       .  S
C1746      H1748   1.087       .  S
C1749      C1750   1.335       .  D
C1749      H1751   1.079       .  S
C1750      H1752   1.086       .  S
Fe1753     O1769   2.066       .  S
Fe1753     O1759   2.081       .  S
Fe1753     O2058   2.075   1_554  S
Fe1753     O2050   2.070   1_554  S
Fe1753     O2056   1.972       .  S
Fe1754     O2049   2.069       .  S
Fe1754     O2053   2.081       .  S
Fe1754     O1765   2.069       .  S
Fe1754     O1770   2.089       .  S
Fe1754     O1764   1.982       .  S
Fe1755     O2065   2.020       .  S
Fe1755     O1760   2.031       .  S
Fe1755     O2059   2.038       .  S
Fe1755     O1756   2.029       .  S
Fe1755     O1764   1.977       .  S
O1756      C1763   1.258       .  A
O1757     Fe2046   2.057       .  S
O1757      C1771   1.269       .  A
O1758     Fe2045   2.070       .  S
O1758      C1763   1.271       .  A
O1759      C1762   1.272       .  A
O1760      C1772   1.261       .  A
O1761     Fe2046   2.053       .  S
O1761      C1774   1.263       .  A
C1762      O1767   1.267       .  A
C1762      C2041   1.477       .  S
C1763      C2034   1.464       .  S
O1764     Fe2045   1.975       .  S
O1765      C1768   1.273       .  A
O1766     Fe2045   2.069       .  S
O1766      C1768   1.270       .  A
O1767     Fe2047   2.052   1_554  S
C1768      C2030   1.478       .  S
O1769      C1774   1.269       .  A
O1770      C1772   1.272       .  A
C1771      O1773   1.267       .  A
C1771      C2025   1.470       .  S
C1772      C2022   1.469       .  S
O1773     Fe2047   2.062   1_554  S
C1774      C2037   1.473       .  S
Fe1775     O1791   2.075       .  S
Fe1775     O1781   2.069       .  S
Fe1775     O2080   2.068       .  S
Fe1775     O2072   2.069       .  S
Fe1775     O2078   1.977       .  S
Fe1776     O2071   2.064   1_554  S
Fe1776     O2075   2.037   1_554  S
Fe1776     O1787   2.061       .  S
Fe1776     O1792   2.032       .  S
Fe1776     O1786   1.970       .  S
Fe1777     O2087   2.054   1_554  S
Fe1777     O1782   2.076       .  S
Fe1777     O2081   2.075   1_554  S
Fe1777     O1778   2.047       .  S
Fe1777     O1786   1.962       .  S
O1778      C1785   1.267       .  A
O1779     Fe2068   2.069       .  S
O1779      C1793   1.271       .  A
O1780     Fe2067   2.093   1_554  S
O1780      C1785   1.277       .  A
O1781      C1784   1.270       .  A
O1782      C1794   1.273       .  A
O1783     Fe2068   2.068       .  S
O1783      C1796   1.269       .  A
C1784      O1789   1.266       .  A
C1784      C2009   1.480       .  S
C1785      C2017   1.475       .  S
O1786     Fe2067   1.963   1_554  S
O1787      C1790   1.266       .  A
O1788     Fe2067   2.066   1_554  S
O1788      C1790   1.266       .  A
O1789     Fe2069   2.065       .  S
C1790      C2002   1.476       .  S
O1791      C1796   1.271       .  A
O1792      C1794   1.262       .  A
C1793      O1795   1.270       .  A
C1793      C2006   1.472       .  S
C1794      C2013   1.461       .  S
O1795     Fe2069   2.061       .  S
C1796      C1997   1.480       .  S
C1797      C1798   1.415       .  A
C1797      C1996   1.443       .  S
C1798      C1993   1.451       .  S
C1799      C1800   1.407   1_565  A
C1799      C1991   1.449       .  S
C1800      C1990   1.446       .  S
C1801      C1802   1.408       .  A
C1801      C1985   1.445       .  S
C1803      C1981   1.478       .  S
C1803      N1808   1.361       .  A
N1804      C1805   1.363       .  A
C1805      C2001   1.477       .  S
C1805      N1806   1.360       .  A
N1806      C1807   1.354       .  A
C1809      C1977   1.470       .  S
C1809      N1810   1.354       .  A
C1809      N1814   1.358       .  A
C1811      C2038   1.472       .  S
C1811      N1812   1.364       .  A
C1813      C1989   1.437       .  S
C1813      N1814   1.354       .  A
C1815      C2014   1.462       .  S
C1815      N1816   1.352       .  A
C1815      N1820   1.359       .  A
N1816      C1817   1.353       .  A
C1817      C1973   1.460       .  S
C1817      N1818   1.358       .  A
N1818      C1819   1.353       .  A
C1819      C1986   1.429       .  S
C1819      N1820   1.353       .  A
C1821      C1970   1.485       .  S
C1821      N1822   1.364       .  A
C1821      N1826   1.363   1_655  A
N1822      C1823   1.360   1_655  A
C1823      C1988   1.442       .  S
N1824      C1825   1.359       .  A
C1825      C2026   1.469       .  S
C1827      C2042   1.476       .  S
C1827      N1828   1.357       .  A
C1827      N1832   1.360       .  A
N1828      C1829   1.354       .  A
C1829      C1994   1.435       .  S
C1829      N1830   1.358       .  A
N1830      C1831   1.362       .  A
C1831      C1966   1.480       .  S
C1831      N1832   1.360       .  A
C1833      C1961   1.485       .  S
C1833      N1834   1.372       .  A
C1833      N1838   1.354       .  A
C1835      C2018   1.477       .  S
C1835      N1836   1.361       .  A
C1837      C1992   1.430       .  S
C1837      N1838   1.349       .  A
Fe1839     O1855   2.062       .  S
Fe1839     O1845   2.082       .  S
Fe1839     O1852   2.088       .  S
Fe1839     O1844   2.065       .  S
Fe1839     O1850   1.982       .  S
Fe1840     O1843   2.067       .  S
Fe1840     O1847   2.055       .  S
Fe1840     O1851   2.064       .  S
Fe1840     O1856   2.057       .  S
Fe1840     O1850   1.979       .  S
Fe1841     O1859   2.070       .  S
Fe1841     O1846   2.065       .  S
Fe1841     O1853   2.069       .  S
Fe1841     O1842   2.069       .  S
Fe1841     O1850   1.981       .  S
O1842      C1849   1.270       .  A
O1843      C1857   1.269       .  A
O1844      C1849   1.270       .  A
O1845      C1848   1.271       .  A
O1846      C1858   1.269       .  A
O1847      C1860   1.267       .  A
C1848      O1853   1.269       .  A
C1848      C1969   1.486       .  S
C1849      C1950   1.475       .  S
O1851      C1854   1.267       .  A
O1852      C1854   1.272       .  A
C1854      C1953   1.486       .  S
O1855      C1860   1.270       .  A
O1856      C1858   1.269       .  A
C1857      O1859   1.268       .  A
C1857      C1965   1.480       .  S
C1858      C1958   1.472       .  S
C1860      C1978   1.469       .  S
Fe1861     O1877   2.065       .  S
Fe1861     O1867   2.050       .  S
Fe1861     O1874   2.054       .  S
Fe1861     O1866   2.063       .  S
Fe1861     O1872   1.982       .  S
Fe1862     O1865   2.034       .  S
Fe1862     O1869   2.055       .  S
Fe1862     O1873   2.038       .  S
Fe1862     O1878   2.049       .  S
Fe1862     O1872   1.971       .  S
Fe1863     O1881   2.105       .  S
Fe1863     O1868   2.073       .  S
Fe1863     O1875   2.072       .  S
Fe1863     O1864   2.102       .  S
Fe1863     O1872   1.984       .  S
O1864      C1871   1.280       .  A
O1865      C1879   1.264       .  A
O1866      C1871   1.269       .  A
O1867      C1870   1.265       .  A
O1868      C1880   1.268       .  A
O1869      C1882   1.264       .  A
C1870      O1875   1.267       .  A
C1870      C1941   1.477       .  S
C1871      C1962   1.490       .  S
O1873      C1876   1.265       .  A
O1874      C1876   1.263       .  A
C1876      C1974   1.463       .  S
O1877      C1882   1.270       .  A
O1878      C1880   1.263       .  A
C1879      O1881   1.278       .  A
C1879      C1945   1.474       .  S
C1880      C1982   1.474       .  S
C1882      C1938   1.474       .  S
C1883      C1932   1.466       .  S
C1884      C1929   1.432       .  S
C1885      C1886   1.416       .  A
C1885      C1935   1.454       .  S
C1886      C1933   1.455       .  S
C1887      C1888   1.408       .  A
C1887      C1928   1.442       .  S
C1888      C1925   1.453       .  S
C1889      C1954   1.488       .  S
C1889      N1890   1.363       .  A
C1889      N1894   1.365       .  A
C1891      C2029   1.474       .  S
C1891      N1892   1.356       .  A
C1893      C1934   1.439       .  S
C1893      N1894   1.360       .  A
C1895      C1946   1.483       .  S
C1895      N1900   1.361       .  A
N1896      C1897   1.362       .  A
C1897      C1998   1.482       .  S
C1897      N1898   1.361       .  A
N1898      C1899   1.359       .  A
C1899      C1931   1.449       .  S
C1901      C1949   1.477       .  S
C1901      N1902   1.362   1_655  A
C1901      N1906   1.359       .  A
C1903      C2021   1.476       .  S
C1903      N1904   1.362       .  A
C1905      C1926   1.424       .  S
C1905      N1906   1.352   1_455  A
C1907      C2005   1.477       .  S
C1907      N1908   1.359       .  A
C1907      N1912   1.362       .  A
N1908      C1909   1.351       .  A
C1909      C1927   1.425       .  S
C1909      N1910   1.350       .  A
N1910      C1911   1.354       .  A
C1911      C1937   1.470       .  S
C1911      N1912   1.363       .  A
C1913      C1942   1.475       .  S
C1913      N1914   1.358       .  A
C1913      N1918   1.358       .  A
C1915      C2010   1.477       .  S
C1915      N1916   1.365       .  A
C1917      C1936   1.438       .  S
C1917      N1918   1.356       .  A
C1919      C2033   1.463       .  S
C1919      N1920   1.362       .  A
C1919      N1924   1.349       .  A
N1920      C1921   1.359       .  A
C1921      C1957   1.471       .  S
C1921      N1922   1.358       .  A
N1922      C1923   1.352       .  A
C1923      C1930   1.415       .  S
C1923      N1924   1.347       .  A
C1927      C1928   1.200       .  T
C1929      C1930   1.194       .  T
C1931      C1932   1.214       .  T
C1935      C1936   1.208       .  T
C1937      C1938   1.339       .  D
C1937      H1939   1.087       .  S
C1938      H1940   1.087       .  S
C1941      C1942   1.347       .  D
C1941      H1943   1.087       .  S
C1942      H1944   1.087       .  S
C1945      C1946   1.340       .  D
C1945      H1947   1.088       .  S
C1946      H1948   1.084       .  S
C1949      C1950   1.347       .  D
C1949      H1951   1.087       .  S
C1950      H1952   1.087       .  S
C1953      C1954   1.347       .  D
C1953      H1955   1.087       .  S
C1954      H1956   1.086       .  S
C1957      C1958   1.345       .  D
C1957      H1959   1.087       .  S
C1958      H1960   1.087       .  S
C1961      C1962   1.340       .  D
C1961      H1963   1.087       .  S
C1962      H1964   1.087       .  S
C1965      C1966   1.347       .  D
C1965      H1967   1.087       .  S
C1966      H1968   1.087       .  S
C1969      C1970   1.349       .  D
C1969      H1971   1.087       .  S
C1970      H1972   1.087       .  S
C1973      C1974   1.339       .  D
C1973      H1975   1.087       .  S
C1974      H1976   1.087       .  S
C1977      C1978   1.341       .  D
C1977      H1979   1.087       .  S
C1978      H1980   1.087       .  S
C1981      C1982   1.344       .  D
C1981      H1983   1.087       .  S
C1982      H1984   1.087       .  S
C1985      C1986   1.202       .  T
C1987      C1988   1.210       .  T
C1991      C1992   1.203       .  T
C1993      C1994   1.206       .  T
C1995      C1996   1.202       .  T
C1997      C1998   1.347       .  D
C1997      H1999   1.087       .  S
C1998      H2000   1.087       .  S
C2001      C2002   1.348       .  D
C2001      H2003   1.087       .  S
C2002      H2004   1.087       .  S
C2005      C2006   1.346       .  D
C2005      H2007   1.087       .  S
C2006      H2008   1.087       .  S
C2009      C2010   1.343       .  D
C2009      H2011   1.087       .  S
C2010      H2012   1.087       .  S
C2013      C2014   1.336       .  D
C2013      H2015   1.088       .  S
C2014      H2016   1.087       .  S
C2017      C2018   1.341       .  D
C2017      H2019   1.087       .  S
C2018      H2020   1.087       .  S
C2021      C2022   1.340       .  D
C2021      H2023   1.086       .  S
C2022      H2024   1.088       .  S
C2025      C2026   1.341       .  D
C2025      H2027   1.087       .  S
C2026      H2028   1.087       .  S
C2029      C2030   1.342       .  D
C2029      H2031   1.087       .  S
C2030      H2032   1.087       .  S
C2033      C2034   1.333       .  D
C2033      H2035   1.087       .  S
C2034      H2036   1.087       .  S
C2037      C2038   1.339       .  D
C2037      H2039   1.087       .  S
C2038      H2040   1.087       .  S
C2041      C2042   1.349       .  D
C2041      H2043   1.087       .  S
C2042      H2044   1.087       .  S
Fe2045     O2061   2.074       .  S
Fe2045     O2051   2.070       .  S
Fe2046     O2057   2.060   1_554  S
Fe2046     O2062   2.051   1_554  S
Fe2046     O2056   1.973       .  S
Fe2047     O2052   2.055       .  S
Fe2047     O2048   2.060       .  S
Fe2047     O2056   1.979   1_556  S
O2048      C2055   1.269       .  A
O2049      C2063   1.271       .  A
O2050      C2055   1.268       .  A
O2051      C2054   1.272       .  A
O2052      C2064   1.264       .  A
O2053      C2066   1.272       .  A
C2054      O2059   1.261       .  A
C2054      C2333   1.468       .  S
C2055      C2326   1.478       .  S
O2057      C2060   1.268       .  A
O2058      C2060   1.275       .  A
C2060      C2322   1.479       .  S
O2061      C2066   1.268       .  A
O2062      C2064   1.267       .  A
C2063      O2065   1.259       .  A
C2063      C2317   1.453       .  S
C2064      C2314   1.468       .  S
C2066      C2329   1.491       .  S
Fe2067     O2083   2.091       .  S
Fe2067     O2073   2.061       .  S
Fe2068     O2079   2.079       .  S
Fe2068     O2084   2.067       .  S
Fe2068     O2078   1.972       .  S
Fe2069     O2074   2.065       .  S
Fe2069     O2070   2.055       .  S
Fe2069     O2078   1.984       .  S
O2070      C2077   1.268       .  A
O2071      C2085   1.266       .  A
O2072      C2077   1.272       .  A
O2073      C2076   1.268       .  A
O2074      C2086   1.267       .  A
O2075      C2088   1.265       .  A
C2076      O2081   1.269       .  A
C2076      C2301   1.481       .  S
C2077      C2309   1.470       .  S
O2079      C2082   1.271       .  A
O2080      C2082   1.269       .  A
C2082      C2294   1.483       .  S
O2083      C2088   1.278       .  A
O2084      C2086   1.268       .  A
C2085      O2087   1.268       .  A
C2085      C2298   1.469       .  S
C2086      C2305   1.477       .  S
C2088      C2289   1.470       .  S
C2089      C2090   1.410       .  A
C2089      C2288   1.449       .  S
C2090      C2285   1.440       .  S
C2091      C2092   1.413       .  A
C2091      C2283   1.451       .  S
C2092      C2282   1.465       .  S
C2093      C2094   1.408       .  A
C2093      C2277   1.439       .  S
C2095      C2273   1.490       .  S
C2095      N2100   1.361       .  A
N2096      C2097   1.364       .  A
C2097      C2293   1.484       .  S
C2097      N2098   1.364       .  A
N2098      C2099   1.358       .  A
C2101      C2269   1.489       .  S
C2101      N2102   1.368       .  A
C2101      N2106   1.361       .  A
C2103      C2330   1.486       .  S
C2103      N2104   1.359       .  A
C2105      C2281   1.432       .  S
C2105      N2106   1.353       .  A
C2107      C2306   1.479       .  S
C2107      N2108   1.364       .  A
C2107      N2112   1.358       .  A
N2108      C2109   1.367       .  A
C2109      C2265   1.475       .  S
C2109      N2110   1.353       .  A
N2110      C2111   1.350       .  A
C2111      C2278   1.422       .  S
C2111      N2112   1.351       .  A
C2113      C2262   1.471       .  S
C2113      N2114   1.360       .  A
C2113      N2118   1.356       .  A
N2114      C2115   1.359   1_655  A
C2115      C2280   1.431       .  S
N2116      C2117   1.360       .  A
C2117      C2318   1.461       .  S
C2119      C2334   1.465       .  S
C2119      N2120   1.350       .  A
C2119      N2124   1.362       .  A
N2120      C2121   1.348       .  A
C2121      C2286   1.423       .  S
C2121      N2122   1.355       .  A
N2122      C2123   1.361       .  A
C2123      C2258   1.475       .  S
C2123      N2124   1.360       .  A
C2125      C2253   1.472       .  S
C2125      N2126   1.357       .  A
C2125      N2130   1.361       .  A
C2127      C2310   1.470       .  S
C2127      N2128   1.358       .  A
C2129      C2284   1.435       .  S
C2129      N2130   1.357       .  A
Fe2131     O2147   2.076       .  S
Fe2131     O2137   2.074       .  S
Fe2131     O2144   2.068       .  S
Fe2131     O2136   2.070       .  S
Fe2131     O2142   1.990       .  S
Fe2132     O2135   2.065       .  S
Fe2132     O2139   2.077       .  S
Fe2132     O2143   2.060       .  S
Fe2132     O2148   2.086       .  S
Fe2132     O2142   1.980       .  S
Fe2133     O2151   2.059       .  S
Fe2133     O2138   2.056       .  S
Fe2133     O2145   2.051       .  S
Fe2133     O2134   2.055       .  S
Fe2133     O2142   1.975       .  S
O2134      C2141   1.268       .  A
O2135      C2149   1.269       .  A
O2136      C2141   1.268       .  A
O2137      C2140   1.269       .  A
O2138      C2150   1.265       .  A
O2139      C2152   1.272       .  A
C2140      O2145   1.268       .  A
C2140      C2261   1.478       .  S
C2141      C2242   1.476       .  S
O2143      C2146   1.267       .  A
O2144      C2146   1.270       .  A
C2146      C2245   1.475       .  S
O2147      C2152   1.270       .  A
O2148      C2150   1.273       .  A
C2149      O2151   1.267       .  A
C2149      C2257   1.474       .  S
C2150      C2250   1.481       .  S
C2152      C2270   1.484       .  S
Fe2153     O2169   2.053       .  S
Fe2153     O2159   2.100       .  S
Fe2153     O2166   2.094       .  S
Fe2153     O2158   2.050       .  S
Fe2153     O2164   1.978       .  S
Fe2154     O2157   2.045       .  S
Fe2154     O2161   2.070       .  S
Fe2154     O2165   2.041       .  S
Fe2154     O2170   2.067       .  S
Fe2154     O2164   1.965       .  S
Fe2155     O2173   2.089       .  S
Fe2155     O2160   2.086       .  S
Fe2155     O2167   2.077       .  S
Fe2155     O2156   2.074       .  S
Fe2155     O2164   1.975       .  S
O2156      C2163   1.268       .  A
O2157      C2171   1.263       .  A
O2158      C2163   1.266       .  A
O2159      C2162   1.276       .  A
O2160      C2172   1.273       .  A
O2161      C2174   1.270       .  A
C2162      O2167   1.276       .  A
C2162      C2233   1.489       .  S
C2163      C2254   1.476       .  S
O2165      C2168   1.263       .  A
O2166      C2168   1.276       .  A
C2168      C2266   1.476       .  S
O2169      C2174   1.264       .  A
O2170      C2172   1.270       .  A
C2171      O2173   1.272       .  A
C2171      C2237   1.476       .  S
C2172      C2274   1.480       .  S
C2174      C2230   1.475       .  S
C2175      C2224   1.443       .  S
C2176      C2221   1.464       .  S
C2177      C2178   1.418   1_565  A
C2177      C2227   1.447       .  S
C2178      C2225   1.459   1_545  S
C2179      C2180   1.414       .  A
C2179      C2220   1.454       .  S
C2180      C2217   1.447       .  S
C2181      C2246   1.474       .  S
C2181      N2182   1.356       .  A
C2181      N2186   1.361       .  A
C2183      C2321   1.471       .  S
C2183      N2184   1.365       .  A
C2185      C2226   1.450       .  S
C2185      N2186   1.358       .  A
C2187      C2238   1.478       .  S
C2187      N2192   1.362       .  A
N2188      C2189   1.363       .  A
C2189      C2290   1.469       .  S
C2189      N2190   1.351       .  A
N2190      C2191   1.349       .  A
C2191      C2223   1.426       .  S
C2193      C2241   1.472       .  S
C2193      N2194   1.357       .  A
C2193      N2198   1.359       .  A
C2195      C2313   1.463       .  S
C2195      N2196   1.359       .  A
C2197      C2218   1.441       .  S
C2197      N2198   1.356   1_455  A
C2199      C2297   1.469       .  S
C2199      N2200   1.359       .  A
C2199      N2204   1.353       .  A
N2200      C2201   1.356       .  A
C2201      C2219   1.439       .  S
C2201      N2202   1.360       .  A
N2202      C2203   1.363       .  A
C2203      C2229   1.471       .  S
C2203      N2204   1.354       .  A
C2205      C2234   1.497       .  S
C2205      N2206   1.374       .  A
C2205      N2210   1.359       .  A
C2207      C2302   1.479       .  S
C2207      N2208   1.363       .  A
C2209      C2228   1.431       .  S
C2209      N2210   1.350       .  A
C2211      C2325   1.474       .  S
C2211      N2212   1.355       .  A
C2211      N2216   1.361       .  A
N2212      C2213   1.355       .  A
C2213      C2249   1.480       .  S
C2213      N2214   1.364       .  A
N2214      C2215   1.363       .  A
C2215      C2222   1.447       .  S
C2215      N2216   1.360       .  A
C2219      C2220   1.208       .  T
C2221      C2222   1.213       .  T
C2223      C2224   1.201       .  T
C2227      C2228   1.204       .  T
C2229      C2230   1.340       .  D
C2229      H2231   1.087       .  S
C2230      H2232   1.087       .  S
C2233      C2234   1.358       .  D
C2233      H2235   1.087       .  S
C2234      H2236   1.086       .  S
C2237      C2238   1.342       .  D
C2237      H2239   1.088       .  S
C2238      H2240   1.086       .  S
C2241      C2242   1.345       .  D
C2241      H2243   1.087       .  S
C2242      H2244   1.087       .  S
C2245      C2246   1.342       .  D
C2245      H2247   1.087       .  S
C2246      H2248   1.087       .  S
C2249      C2250   1.341       .  D
C2249      H2251   1.087       .  S
C2250      H2252   1.087       .  S
C2253      C2254   1.344       .  D
C2253      H2255   1.087       .  S
C2254      H2256   1.087       .  S
C2257      C2258   1.344       .  D
C2257      H2259   1.087       .  S
C2258      H2260   1.087       .  S
C2261      C2262   1.344       .  D
C2261      H2263   1.087       .  S
C2262      H2264   1.087       .  S
C2265      C2266   1.337       .  D
C2265      H2267   1.087       .  S
C2266      H2268   1.087       .  S
C2269      C2270   1.353       .  D
C2269      H2271   1.086       .  S
C2270      H2272   1.087       .  S
C2273      C2274   1.349       .  D
C2273      H2275   1.086       .  S
C2274      H2276   1.087       .  S
C2277      C2278   1.198       .  T
C2279      C2280   1.204       .  T
C2283      C2284   1.206       .  T
C2285      C2286   1.199       .  T
C2287      C2288   1.205       .  T
C2289      C2290   1.336       .  D
C2289      H2291   1.088       .  S
C2290      H2292   1.087       .  S
C2293      C2294   1.348       .  D
C2293      H2295   1.087       .  S
C2294      H2296   1.087       .  S
C2297      C2298   1.340       .  D
C2297      H2299   1.087       .  S
C2298      H2300   1.087       .  S
C2301      C2302   1.346       .  D
C2301      H2303   1.087       .  S
C2302      H2304   1.087       .  S
C2305      C2306   1.349       .  D
C2305      H2307   1.087       .  S
C2306      H2308   1.086       .  S
C2309      C2310   1.343       .  D
C2309      H2311   1.087       .  S
C2310      H2312   1.087       .  S
C2313      C2314   1.340       .  D
C2313      H2315   1.087       .  S
C2314      H2316   1.087       .  S
C2317      C2318   1.332       .  D
C2317      H2319   1.089       .  S
C2318      H2320   1.087       .  S
C2321      C2322   1.340       .  D
C2321      H2323   1.087       .  S
C2322      H2324   1.087       .  S
C2325      C2326   1.344       .  D
C2325      H2327   1.087       .  S
C2326      H2328   1.087       .  S
C2329      C2330   1.347       .  D
C2329      H2331   1.087       .  S
C2330      H2332   1.087       .  S
C2333      C2334   1.335       .  D
C2333      H2335   1.087       .  S
C2334      H2336   1.087       .  S
