geometry optimzed in LAMMPS
_audit_creation_date              2020-11-30 
_audit_creation_method            'lammps2cif' 
_symmetry_space_group_name_H-M    'P1' 
_symmetry_Int_Tables_number       1 
_symmetry_cell_setting            triclinic 
loop_ 
_symmetry_equiv_pos_as_xyz 
  x,y,z 
_cell_length_a                    47.23311769082451 
_cell_length_b                    39.97857535371358 
_cell_length_c                    26.303822924069138 
_cell_angle_alpha                 90.44517909667657 
_cell_angle_beta                  90.45149484325022 
_cell_angle_gamma                 90.00988441534933 
loop_ 
_atom_site_label 
_atom_site_type_symbol 
_atom_site_fract_x 
_atom_site_fract_y 
_atom_site_fract_z 
_atom_site_charge 
C1          C  0.34912339  0.30440524  0.99984657     0.03420
C2          C  0.35311455  0.26895953  0.00146291    -0.12730
C3          C  0.32968409  0.24716488  0.99947183     0.00920
C4          C  0.30249547  0.26122044  0.99735564    -0.11250
C5          C  0.29811075  0.29558448  0.99645522     0.03420
C6          C  0.32139830  0.31739209  0.99769317    -0.10670
H7          H  0.37424479  0.25845965  0.00280195     0.09010
H8          H  0.28400453  0.24509245  0.99717629     0.06540
H9          H  0.31794788  0.34417564  0.99727250     0.06390
C10         C  0.34979506  0.30325709  0.50072936     0.03420
C11         C  0.35394999  0.26786573  0.49873712    -0.12730
C12         C  0.33063177  0.24599355  0.49558137     0.00920
C13         C  0.30345618  0.25984540  0.49140329    -0.11250
C14         C  0.29880658  0.29420971  0.49473925     0.03420
C15         C  0.32197317  0.31604068  0.50055530    -0.10670
H16         H  0.37509054  0.25745743  0.50105067     0.09010
H17         H  0.28524074  0.24341545  0.48777583     0.06540
H18         H  0.31840578  0.34278097  0.50260365     0.06390
Zn19       Zn  0.32146102  0.08414629  0.95724321     1.49720
Zn20       Zn  0.34632139  0.13978020  0.03527792     1.49360
Zn21       Zn  0.29451610  0.15272070  0.95595033     1.49110
Zn22       Zn  0.28378971  0.10664876  0.04949197     1.49480
O23         O  0.31214027  0.12136825  0.00076091    -1.83830
O24         O  0.35868199  0.06617524  0.97557997    -0.74460
O25         O  0.34984268  0.19188029  0.01910055    -0.74280
O26         O  0.30161647  0.14477780  0.88188828    -0.73800
O27         O  0.38052320  0.10689379  0.01901929    -0.74480
O28         O  0.32095013  0.09433401  0.88314279    -0.74080
O29         O  0.31023107  0.19627327  0.97334325    -0.74660
O30         O  0.24513437  0.12676006  0.03745394    -0.74050
O31         O  0.33998522  0.13719898  0.11296334    -0.74810
O32         O  0.25255603  0.15523319  0.96665275    -0.74200
O33         O  0.29701760  0.11484291  0.12092484    -0.74660
O34         O  0.27630786  0.05840863  0.04179270    -0.74570
O35         O  0.29526195  0.04700934  0.96682160    -0.74360
C36         C  0.38041086  0.07749047  0.99840898     0.77430
C37         C  0.33092883  0.20980406  0.99671319     0.77920
C38         C  0.31196926  0.11960430  0.85902124     0.76880
C39         C  0.23608580  0.14460492  0.00101529     0.77250
C40         C  0.31963732  0.12674505  0.14051588     0.78390
C41         C  0.28026682  0.03881346  0.00442732     0.77440
Zn42       Zn  0.32172829  0.08233844  0.54200956     1.49720
Zn43       Zn  0.29708951  0.15244249  0.54551985     1.49360
Zn44       Zn  0.34736563  0.13784099  0.46630169     1.49110
Zn45       Zn  0.28389931  0.10719434  0.45077263     1.49480
O46         O  0.31315832  0.12023493  0.49991838    -1.83830
O47         O  0.32150023  0.09251292  0.61660523    -0.74460
O48         O  0.31136064  0.19627186  0.52549705    -0.74280
O49         O  0.38144968  0.10520510  0.48406416    -0.73800
O50         O  0.30688918  0.14515919  0.61864495    -0.74480
O51         O  0.35909059  0.06411254  0.52431559    -0.74080
O52         O  0.35084762  0.19019866  0.48066307    -0.74660
O53         O  0.29684186  0.11558510  0.37934755    -0.74050
O54         O  0.25474313  0.15396107  0.53950550    -0.74810
O55         O  0.34115528  0.13406827  0.38878336    -0.74200
O56         O  0.24581276  0.12808055  0.46607553    -0.74660
O57         O  0.27505953  0.05898770  0.45582098    -0.74570
O58         O  0.29438984  0.04604159  0.53023077    -0.74360
C59         C  0.31543292  0.11900563  0.64110753     0.77430
C60         C  0.33191622  0.20888456  0.50136404     0.77920
C61         C  0.38112882  0.07566292  0.50349482     0.76880
C62         C  0.32027194  0.12512792  0.36057415     0.77250
C63         C  0.23751440  0.14434140  0.50498471     0.78390
C64         C  0.27828089  0.03917651  0.49284815     0.77440
C65         C  0.15558170  0.14682449  0.00056795     0.03420
C66         C  0.18336353  0.13403939  0.00129051    -0.12730
C67         C  0.20652079  0.15599868  0.00026450     0.00920
C68         C  0.20195255  0.19031502  0.99801095    -0.11250
C69         C  0.17467144  0.20415029  0.99711501     0.03420
C70         C  0.15134321  0.18222728  0.99936972    -0.10670
H71         H  0.18694220  0.10730181  0.00300628     0.09010
H72         H  0.22033570  0.20660970  0.99767945     0.06540
H73         H  0.13011985  0.19248713  0.99871442     0.06390
C74         C  0.15700416  0.14600984  0.50764807     0.03420
C75         C  0.18485698  0.13338014  0.50790177    -0.12730
C76         C  0.20794995  0.15551870  0.50815139     0.00920
C77         C  0.20325977  0.18987055  0.50874917    -0.11250
C78         C  0.17594306  0.20343160  0.50586414     0.03420
C79         C  0.15269150  0.18137786  0.50623800    -0.10670
H80         H  0.18854459  0.10663947  0.50690526     0.09010
H81         H  0.22151605  0.20637791  0.50901893     0.06540
H82         H  0.13147600  0.19157014  0.50384780     0.06390
Zn83       Zn  0.22066465  0.34555495  0.04111584     1.49720
Zn84       Zn  0.20983149  0.29757418  0.94987374     1.49360
Zn85       Zn  0.15832366  0.31212319  0.02852377     1.49110
Zn86       Zn  0.18176180  0.36641755  0.94912219     1.49480
O87         O  0.19199958  0.32988191  0.99303740    -1.83830
O88         O  0.25962414  0.32671438  0.02960874    -0.74460
O89         O  0.19384205  0.25418490  0.96794417    -0.74280
O90         O  0.16603426  0.31487196  0.10570235    -0.73800
O91         O  0.25190105  0.29473468  0.96173925    -0.74480
O92         O  0.20930495  0.33647208  0.11209117    -0.74080
O93         O  0.15451159  0.25988629  0.01331933    -0.74660
O94         O  0.14481346  0.38483551  0.96889928    -0.74050
O95         O  0.20320145  0.30528929  0.87578664    -0.74810
O96         O  0.12393104  0.34490108  0.01393464    -0.74200
O97         O  0.18080961  0.35399968  0.87488497    -0.74660
O98         O  0.20843426  0.40400957  0.95813012    -0.74570
O99         O  0.22685811  0.39358291  0.03404403    -0.74360
C100        C  0.26856087  0.30710946  0.99516651     0.77430
C101        C  0.17326853  0.24134812  0.99180012     0.77920
C102        C  0.18735088  0.32426375  0.13248642     0.76880
C103        C  0.12364129  0.37400351  0.99310153     0.77250
C104        C  0.19141430  0.32900048  0.85172694     0.78390
C105        C  0.22360965  0.41253446  0.99602771     0.77440
Zn106      Zn  0.15953027  0.31150952  0.53090234     1.49720
Zn107      Zn  0.22183427  0.34560480  0.53935078     1.49360
Zn108      Zn  0.20987387  0.29591131  0.45065145     1.49110
Zn109      Zn  0.18080126  0.36460277  0.44886922     1.49480
O110        O  0.19255949  0.32891019  0.49324329    -1.83830
O111        O  0.16793334  0.31615826  0.60663360    -0.74460
O112        O  0.26057238  0.32593555  0.52795340    -0.74280
O113        O  0.19447168  0.25260268  0.47218023    -0.73800
O114        O  0.21096378  0.33866351  0.61132303    -0.74480
O115        O  0.15571178  0.25924623  0.51895671    -0.74080
O116        O  0.25219993  0.29325319  0.46108615    -0.74660
O117        O  0.17710980  0.35012838  0.37516585    -0.74050
O118        O  0.22782566  0.39359614  0.52867376    -0.74810
O119        O  0.20165702  0.30278603  0.37640562    -0.74200
O120        O  0.20820315  0.40219454  0.45287097    -0.74660
O121        O  0.14468506  0.38386368  0.47377789    -0.74570
O122        O  0.12479721  0.34371146  0.51968166    -0.74360
C123        C  0.18891380  0.32724518  0.63250709     0.77430
C124        C  0.26917594  0.30577221  0.49393282     0.77920
C125        C  0.17432657  0.24032898  0.49790728     0.76880
C126        C  0.18796623  0.32510248  0.35227356     0.77370
C127        C  0.22379593  0.41164169  0.48981664     0.78390
C128        C  0.12424443  0.37315075  0.50021034     0.77440
C129        C  0.40538528  0.05478799  0.00040463     0.03420
C130        C  0.40134330  0.01932739  0.00001754    -0.12730
C131        C  0.42478036  0.49753548  0.00139373     0.00920
C132        C  0.45197571  0.01158522  0.00136367    -0.11250
C133        C  0.45637804  0.04598098  0.00088913     0.03420
C134        C  0.43310872  0.06779476  0.00055526    -0.10670
H135        H  0.38018475  0.00887018  0.00015657     0.09010
H136        H  0.47042998  0.99540654  0.00110034     0.06540
H137        H  0.43655504  0.09458047  0.00017959     0.06390
C138        C  0.40626644  0.05312380  0.50235773     0.03420
C139        C  0.40239858  0.01765914  0.50281390    -0.12730
C140        C  0.42591247  0.49600372  0.50179516     0.00920
C141        C  0.45307163  0.01019564  0.50192890    -0.11250
C142        C  0.45736788  0.04461745  0.50250795     0.03420
C143        C  0.43397410  0.06629686  0.50258256    -0.10670
H144        H  0.38129553  0.00704604  0.50246933     0.09010
H145        H  0.47158843  0.99412096  0.50242753     0.06540
H146        H  0.43731499  0.09310513  0.50298967     0.06390
Zn147      Zn  0.40770956  0.38985093  0.96766446     1.49720
Zn148      Zn  0.43263856  0.33499592  0.04442185     1.49360
Zn149      Zn  0.46999012  0.35656616  0.95230127     1.49110
Zn150      Zn  0.46019577  0.40340452  0.04583113     1.49480
O151        O  0.44204780  0.37184183  0.00132260    -1.83830
O152        O  0.37365421  0.35692714  0.98367624    -0.74460
O153        O  0.46048233  0.29865987  0.03747297    -0.74280
O154        O  0.45627730  0.36391136  0.88123770    -0.73800
O155        O  0.39608154  0.31571823  0.02397807    -0.74480
O156        O  0.41356916  0.38682716  0.89015881    -0.74080
O157        O  0.47789667  0.30866431  0.96105648    -0.74660
O158        O  0.50220329  0.40546809  0.03455608    -0.74050
O159        O  0.43065181  0.34733255  0.11801967    -0.74810
O160        O  0.00874534  0.37683291  0.96298512    -0.74200
O161        O  0.45320739  0.39575457  0.11991281    -0.74660
O162        O  0.44446391  0.44708189  0.02832580    -0.74570
O163        O  0.40436950  0.44199735  0.98383753    -0.74360
C164        C  0.37408898  0.32718659  0.00240698     0.77430
C165        C  0.47569018  0.29032157  0.99997315     0.77920
C166        C  0.43365318  0.37596909  0.86218432     0.76880
C167        C  0.01827951  0.39465993  0.99946017     0.77250
C168        C  0.44058263  0.37221782  0.14263175     0.78390
C169        C  0.42354014  0.46024740  0.00530406     0.77440
Zn170      Zn  0.43364713  0.33325951  0.46032962     1.49720
Zn171      Zn  0.40851349  0.38871128  0.53606557     1.49360
Zn172      Zn  0.47086086  0.35567377  0.55431951     1.49110
Zn173      Zn  0.46188508  0.40139119  0.46033853     1.49480
O174        O  0.44316013  0.37040458  0.50393494    -1.83830
O175        O  0.39690784  0.31443869  0.47928700    -0.74460
O176        O  0.41352677  0.38554513  0.61387337    -0.74280
O177        O  0.47969936  0.30800979  0.54433367    -0.73800
O178        O  0.37423227  0.35602696  0.51840022    -0.74480
O179        O  0.46103497  0.29659406  0.46863976    -0.74080
O180        O  0.45595520  0.36210080  0.62440869    -0.74660
O181        O  0.50374603  0.40423488  0.47521063    -0.74050
O182        O  0.40559317  0.44075047  0.51982340    -0.74810
O183        O  0.00945803  0.37693318  0.54770697    -0.74200
O184        O  0.44566241  0.44514963  0.47627377    -0.74660
O185        O  0.45594684  0.39261858  0.38562903    -0.74570
O186        O  0.43228636  0.34492680  0.38649370    -0.74360
C187        C  0.37478603  0.32606667  0.49986657     0.77430
C188        C  0.43307781  0.37383049  0.64254844     0.77920
C189        C  0.47683079  0.28889508  0.50591030     0.76880
C190        C  0.01936828  0.39437835  0.51183148     0.77250
C191        C  0.42472631  0.45865565  0.49850630     0.78390
C192        C  0.44332076  0.36892383  0.36225817     0.77440
C193        C  0.09883749  0.39688589  0.99667806     0.03420
C194        C  0.10304312  0.43231078  0.99742243    -0.12730
C195        C  0.07972889  0.45422579  0.00050005     0.00920
C196        C  0.05246158  0.44032455  0.00097150    -0.11250
C197        C  0.04788411  0.40599588  0.99921044     0.03420
C198        C  0.07104940  0.38405024  0.99730236    -0.10670
H199        H  0.12424909  0.44262154  0.99705792     0.09010
H200        H  0.03405174  0.45656078  0.00186780     0.06540
H201        H  0.06746795  0.35728973  0.99594777     0.06390
C202        C  0.09985579  0.39631806  0.50779399     0.03420
C203        C  0.10411036  0.43165257  0.50571036    -0.12730
C204        C  0.08086546  0.45369925  0.50740327     0.00920
C205        C  0.05362229  0.44012150  0.51155109    -0.11250
C206        C  0.04897881  0.40581104  0.51369605     0.03420
C207        C  0.07212451  0.38374304  0.51303469    -0.10670
H208        H  0.12519072  0.44180540  0.50111176     0.09010
H209        H  0.03534864  0.45658112  0.51248169     0.06540
H210        H  0.06843105  0.35699945  0.51337195     0.06390
Zn211      Zn  0.07261962  0.11701684  0.04710378     1.49720
Zn212      Zn  0.09616922  0.06171604  0.96790493     1.49360
Zn213      Zn  0.04457881  0.04834333  0.04605606     1.49110
Zn214      Zn  0.03380773  0.09561774  0.95523434     1.49480
O215        O  0.06242548  0.08015393  0.00304452    -1.83830
O216        O  0.10956526  0.13499493  0.02760345    -0.74460
O217        O  0.10003416  0.00969369  0.98364813    -0.74280
O218        O  0.05120079  0.05649040  0.11989082    -0.73800
O219        O  0.13057175  0.09466439  0.98267291    -0.74480
O220        O  0.07401949  0.10495528  0.12096304    -0.74080
O221        O  0.06048928  0.00480723  0.02838015    -0.74660
O222        O  0.49469533  0.07683133  0.96670043    -0.74050
O223        O  0.08854851  0.06333827  0.89059775    -0.74810
O224        O  0.00270652  0.04548461  0.03441826    -0.74200
O225        O  0.04580283  0.08605341  0.88446102    -0.74660
O226        O  0.02805042  0.14392734  0.96225969    -0.74570
O227        O  0.04654177  0.15514155  0.03810118    -0.74360
C228        C  0.13079290  0.12395300  0.00360451     0.77430
C229        C  0.08113909  0.99152652  0.00506301     0.77920
C230        C  0.06363823  0.07997986  0.14387505     0.76880
C231        C  0.48592002  0.05751348  0.00125913     0.77250
C232        C  0.06746431  0.07313908  0.86375738     0.78390
C233        C  0.03222777  0.16377266  0.99930586     0.77440
Zn234      Zn  0.07370697  0.11594352  0.46017117     1.49720
Zn235      Zn  0.09757408  0.06129151  0.53829288     1.49360
Zn236      Zn  0.03496341  0.09444803  0.55093714     1.49110
Zn237      Zn  0.04566168  0.04711320  0.45891239     1.49480
O238        O  0.06352641  0.07915190  0.50304512    -1.83830
O239        O  0.11078802  0.13394236  0.48017901    -0.74460
O240        O  0.09067435  0.06389681  0.61539373    -0.74280
O241        O  0.02903775  0.14286445  0.54508658    -0.73800
O242        O  0.13214645  0.09378412  0.52438006    -0.74480
O243        O  0.04776037  0.15373801  0.46998649    -0.74080
O244        O  0.04744903  0.08520843  0.62180129    -0.74660
O245        O  0.00367738  0.04430489  0.46978254    -0.74050
O246        O  0.10108915  0.00930843  0.52275146    -0.74810
O247        O  0.49579728  0.07551670  0.53821798    -0.74200
O248        O  0.06156649  0.00338296  0.47666131    -0.74660
O249        O  0.05170524  0.05591957  0.38516659    -0.74570
O250        O  0.07404752  0.10471262  0.38595562    -0.74360
C251        C  0.13221343  0.12303197  0.50408928     0.77430
C252        C  0.06986008  0.07370715  0.64242478     0.77920
C253        C  0.03330178  0.16244222  0.50829993     0.76880
C254        C  0.48693194  0.05626770  0.50291571     0.77250
C255        C  0.08226647  0.99072433  0.50101207     0.78390
C256        C  0.06323198  0.08007743  0.36204682     0.77440
C257        C  0.06800095  0.07017454  0.80720354    -0.05830
C258        C  0.09416334  0.06858016  0.78203901    -0.16960
C259        C  0.09580853  0.06957661  0.72869864     0.11370
C260        C  0.07065795  0.07164763  0.69908570    -0.05750
C261        C  0.04457746  0.07210078  0.72446476    -0.16990
C262        C  0.04287789  0.07094465  0.77732934     0.11400
S263        S  0.13067193  0.06995612  0.70149951    -0.31960
S264        S  0.50764383  0.06939526  0.80334669    -0.31960
H265        H  0.01427016  0.04422409  0.83861766     0.29410
H266        H  0.12497554  0.09744169  0.66991365     0.29400
H267        H  0.11362282  0.06794891  0.80407081     0.20000
H268        H  0.02496168  0.07284251  0.70286065     0.20000
C269        C  0.06324138  0.07997713  0.30630372    -0.05830
C270        C  0.08862815  0.08634786  0.28080476    -0.16960
C271        C  0.08971065  0.08544288  0.22768505     0.11370
C272        C  0.06474934  0.07874688  0.19955719    -0.05750
C273        C  0.03943556  0.07229331  0.22514160    -0.16990
C274        C  0.03829340  0.07339572  0.27805909     0.11400
S275        S  0.12365030  0.09156370  0.19821880    -0.31960
S276        S  0.50405179  0.06827604  0.30701050    -0.31960
H277        H  0.00870141  0.09174061  0.34634477     0.29410
H278        H  0.11855822  0.06981574  0.15684664     0.29400
H279        H  0.10782416  0.09122546  0.30240463     0.20000
H280        H  0.02013388  0.06770509  0.20366344     0.20000
C281        C  0.02043693  0.19560972  0.50890464    -0.05830
C282        C  0.01305090  0.20972052  0.46208004    -0.16960
C283        C  0.49968228  0.24055954  0.45965886     0.11370
C284        C  0.49219451  0.25711165  0.50528059    -0.05750
C285        C  0.49993519  0.24313530  0.55215526    -0.16990
C286        C  0.01455884  0.21304166  0.55446566     0.11400
S287        S  0.49426888  0.25764637  0.39719255    -0.31960
S288        S  0.02606459  0.19928025  0.61643224    -0.31960
H289        H  0.05278433  0.18828215  0.59988077     0.29410
H290        H  0.50365001  0.28991142  0.41096621     0.29400
H291        H  0.01787114  0.19672690  0.42686994     0.20000
H292        H  0.49486110  0.25589136  0.58742760     0.20000
C293        C  0.43084730  0.37598432  0.80605098    -0.05830
C294        C  0.43812820  0.34654308  0.77990103    -0.16960
C295        C  0.43723507  0.34470487  0.72685806     0.11370
C296        C  0.42955648  0.37322672  0.69843640    -0.05750
C297        C  0.42129237  0.40243109  0.72443159    -0.16990
C298        C  0.42218755  0.40423839  0.77785318     0.11400
S299        S  0.44571196  0.30492816  0.69779568    -0.31960
S300        S  0.41419799  0.44391939  0.80738839    -0.31960
H301        H  0.43465755  0.44134603  0.84630889     0.29410
H302        H  0.42705463  0.30841303  0.65620874     0.29400
H303        H  0.44441172  0.32458883  0.80108804     0.20000
H304        H  0.41565828  0.42451275  0.70302617     0.20000
C305        C  0.43873298  0.37252157  0.19873681    -0.05830
C306        C  0.43906398  0.34159954  0.22360737    -0.16960
C307        C  0.44089727  0.33966160  0.27643914     0.11370
C308        C  0.44160533  0.36935679  0.30604161    -0.05750
C309        C  0.44064062  0.40035165  0.28125867    -0.16990
C310        C  0.43888075  0.40228142  0.22821397     0.11400
S311        S  0.44472723  0.29850771  0.30296001    -0.31960
S312        S  0.43583405  0.44338112  0.20095396    -0.31960
H313        H  0.41636993  0.43362902  0.16285278     0.29410
H314        H  0.46690053  0.30831957  0.33575534     0.29400
H315        H  0.43939297  0.31856774  0.20162252     0.20000
H316        H  0.44073581  0.42331257  0.30340941     0.20000
C317        C  0.01945915  0.19713749  0.99814434    -0.05830
C318        C  0.01454128  0.21340045  0.04471138    -0.16960
C319        C  0.50111291  0.24430037  0.04658245     0.11370
C320        C  0.49114364  0.25868318  0.00096345    -0.05750
C321        C  0.49646804  0.24274749  0.95438631    -0.16990
C322        C  0.01107487  0.21265265  0.95228944     0.11400
S323        S  0.49865532  0.26441987  0.10802688    -0.31960
S324        S  0.01910266  0.19649034  0.88980184    -0.31960
H325        H  0.04715332  0.18780899  0.90245931     0.29410
H326        H  0.50620321  0.29626177  0.09010919     0.29400
H327        H  0.02127980  0.20208825  0.08007795     0.20000
H328        H  0.48944308  0.25397037  0.91911673     0.20000
C329        C  0.18828471  0.32684109  0.68857266    -0.05830
C330        C  0.21332148  0.31826136  0.71442910    -0.16960
C331        C  0.21492879  0.31904352  0.76740746     0.11370
C332        C  0.19074618  0.32788304  0.79577335    -0.05750
C333        C  0.16562341  0.33635535  0.77010436    -0.16990
C334        C  0.16418111  0.33618722  0.71689515     0.11400
S335        S  0.24891928  0.31029755  0.79617983    -0.31960
S336        S  0.13153622  0.34979857  0.68773622    -0.31960
H337        H  0.14459158  0.36826581  0.64909956     0.29410
H338        H  0.24686031  0.33519449  0.83408273     0.29400
H339        H  0.23200728  0.31145085  0.69312207     0.20000
H340        H  0.14711435  0.34351196  0.79162740     0.20000
C341        C  0.18694907  0.32132947  0.18867002    -0.05830
C342        C  0.16167200  0.32766241  0.21492897    -0.16960
C343        C  0.16101978  0.32818542  0.26829638     0.11370
C344        C  0.18621681  0.32255217  0.29626952    -0.05750
C345        C  0.21120140  0.31520992  0.27007536    -0.16990
C346        C  0.21185857  0.31426033  0.21702849     0.11400
S347        S  0.12738684  0.33550549  0.29832851    -0.31960
S348        S  0.24518591  0.30319214  0.18829681    -0.31960
H349        H  0.23299704  0.28370716  0.14908348     0.29410
H350        H  0.13271717  0.31493774  0.34048237     0.29400
H351        H  0.14241243  0.33281943  0.19381132     0.20000
H352        H  0.23057721  0.31053124  0.29118989     0.20000
C353        C  0.26305516  0.00745146  0.49230250    -0.05830
C354        C  0.25992046  0.49042912  0.44582510    -0.16960
C355        C  0.24751880  0.45886031  0.44363631     0.11370
C356        C  0.23731751  0.44446351  0.48878448    -0.05750
C357        C  0.24002994  0.46182982  0.53505714    -0.16990
C358        C  0.25243473  0.49327971  0.53727729     0.11400
S359        S  0.24714216  0.43762755  0.38290428    -0.31960
S360        S  0.25280986  0.01439783  0.59819876    -0.31960
H361        H  0.24672398  0.04620232  0.57832409     0.29410
H362        H  0.25481498  0.40629848  0.40277440     0.29400
H363        H  0.26824250  0.50116844  0.41132685     0.20000
H364        H  0.23182075  0.45114953  0.56969563     0.20000
C365        C  0.31679154  0.11875441  0.69684973    -0.05830
C366        C  0.30272621  0.09288489  0.72199594    -0.16960
C367        C  0.30026855  0.09310671  0.77481756     0.11370
C368        C  0.31289311  0.11922722  0.80337147    -0.05750
C369        C  0.32714734  0.14500909  0.77837454    -0.16990
C370        C  0.32948275  0.14486252  0.72539553     0.11400
S371        S  0.27939692  0.06046085  0.80323790    -0.31960
S372        S  0.34974210  0.17785208  0.69665714    -0.31960
H373        H  0.35969023  0.15842229  0.65571236     0.29410
H374        H  0.26830675  0.08042693  0.84259646     0.29400
H375        H  0.29247688  0.07315476  0.70017111     0.20000
H376        H  0.33705482  0.16490830  0.80031866     0.20000
C377        C  0.32210233  0.12705850  0.19678192    -0.05830
C378        C  0.31547008  0.09746825  0.22251145    -0.16960
C379        C  0.31620572  0.09589107  0.27561978     0.11370
C380        C  0.32313843  0.12474726  0.30449480    -0.05750
C381        C  0.33052648  0.15420552  0.27894989    -0.16990
C382        C  0.32970885  0.15579079  0.22550738     0.11400
S383        S  0.30851112  0.05605687  0.30428279    -0.31960
S384        S  0.33650340  0.19568693  0.19654931    -0.31960
H385        H  0.31670025  0.19180720  0.15672045     0.29410
H386        H  0.32666100  0.06039308  0.34648479     0.29400
H387        H  0.30983831  0.07520083  0.20093599     0.20000
H388        H  0.33555341  0.17655361  0.30075573     0.20000
C389        C  0.23804278  0.44492683  0.99671631    -0.05830
C390        C  0.24623679  0.45817374  0.04422856    -0.16960
C391        C  0.26100239  0.48810684  0.04798437     0.11370
C392        C  0.26653263  0.00619131  0.00338820    -0.05750
C393        C  0.25829721  0.49314648  0.95590954    -0.16990
C394        C  0.24475116  0.46241773  0.95189231     0.11400
S395        S  0.27336527  0.50067206  0.11034857    -0.31960
S396        S  0.23814426  0.44664765  0.88846655    -0.31960
H397        H  0.24931854  0.41473085  0.89866636     0.29410
H398        H  0.29999305  0.01165622  0.09356113     0.29400
H399        H  0.24165992  0.44481129  0.07887565     0.20000
H400        H  0.26274182  0.00681227  0.92145442     0.20000
C401        C  0.34912339  0.80440524  0.99984657     0.03420
C402        C  0.35311455  0.76895953  0.00146291    -0.12730
C403        C  0.32968409  0.74716488  0.99947183     0.00920
C404        C  0.30249547  0.76122044  0.99735564    -0.11250
C405        C  0.29811075  0.79558448  0.99645521     0.03420
C406        C  0.32139830  0.81739210  0.99769317    -0.10670
H407        H  0.37424479  0.75845965  0.00280195     0.09010
H408        H  0.28400453  0.74509245  0.99717629     0.06540
H409        H  0.31794788  0.84417564  0.99727249     0.06390
C410        C  0.34979506  0.80325709  0.50072936     0.03420
C411        C  0.35394999  0.76786573  0.49873712    -0.12730
C412        C  0.33063177  0.74599355  0.49558137     0.00920
C413        C  0.30345618  0.75984540  0.49140328    -0.11250
C414        C  0.29880658  0.79420971  0.49473925     0.03420
C415        C  0.32197316  0.81604068  0.50055530    -0.10670
H416        H  0.37509054  0.75745743  0.50105066     0.09010
H417        H  0.28524074  0.74341545  0.48777582     0.06540
H418        H  0.31840578  0.84278097  0.50260364     0.06390
Zn419      Zn  0.32146102  0.58414630  0.95724321     1.49720
Zn420      Zn  0.34632139  0.63978020  0.03527792     1.49360
Zn421      Zn  0.29451610  0.65272070  0.95595033     1.49110
Zn422      Zn  0.28378971  0.60664876  0.04949197     1.49480
O423        O  0.31214027  0.62136826  0.00076091    -1.83830
O424        O  0.35868199  0.56617524  0.97557997    -0.74460
O425        O  0.34984268  0.69188029  0.01910055    -0.74280
O426        O  0.30161647  0.64477780  0.88188828    -0.73800
O427        O  0.38052320  0.60689379  0.01901928    -0.74480
O428        O  0.32095013  0.59433402  0.88314279    -0.74080
O429        O  0.31023107  0.69627327  0.97334325    -0.74660
O430        O  0.24513437  0.62676006  0.03745394    -0.74050
O431        O  0.33998522  0.63719899  0.11296334    -0.74810
O432        O  0.25255603  0.65523319  0.96665275    -0.74200
O433        O  0.29701760  0.61484291  0.12092484    -0.74660
O434        O  0.27630786  0.55840863  0.04179270    -0.74570
O435        O  0.29526195  0.54700934  0.96682159    -0.74360
C436        C  0.38041086  0.57749047  0.99840898     0.77430
C437        C  0.33092883  0.70980406  0.99671319     0.77920
C438        C  0.31196926  0.61960430  0.85902124     0.76880
C439        C  0.23608580  0.64460492  0.00101529     0.77250
C440        C  0.31963732  0.62674505  0.14051588     0.78390
C441        C  0.28026682  0.53881347  0.00442732     0.77440
Zn442      Zn  0.32172829  0.58233844  0.54200956     1.49720
Zn443      Zn  0.29708951  0.65244249  0.54551985     1.49360
Zn444      Zn  0.34736564  0.63784099  0.46630169     1.49110
Zn445      Zn  0.28389931  0.60719434  0.45077263     1.49480
O446        O  0.31315832  0.62023493  0.49991838    -1.83830
O447        O  0.32150023  0.59251293  0.61660523    -0.74460
O448        O  0.31136064  0.69627187  0.52549705    -0.74280
O449        O  0.38144968  0.60520510  0.48406415    -0.73800
O450        O  0.30688918  0.64515919  0.61864495    -0.74480
O451        O  0.35909059  0.56411254  0.52431559    -0.74080
O452        O  0.35084762  0.69019866  0.48066307    -0.74660
O453        O  0.29684186  0.61558510  0.37934754    -0.74050
O454        O  0.25474313  0.65396107  0.53950550    -0.74810
O455        O  0.34115528  0.63406827  0.38878336    -0.74200
O456        O  0.24581276  0.62808054  0.46607553    -0.74660
O457        O  0.27505954  0.55898770  0.45582098    -0.74570
O458        O  0.29438984  0.54604159  0.53023077    -0.74360
C459        C  0.31543292  0.61900564  0.64110753     0.77430
C460        C  0.33191622  0.70888457  0.50136403     0.77920
C461        C  0.38112882  0.57566292  0.50349482     0.76880
C462        C  0.32027194  0.62512792  0.36057414     0.77250
C463        C  0.23751440  0.64434140  0.50498471     0.78390
C464        C  0.27828089  0.53917651  0.49284815     0.77440
C465        C  0.15558170  0.64682449  0.00056795     0.03420
C466        C  0.18336353  0.63403939  0.00129051    -0.12730
C467        C  0.20652079  0.65599868  0.00026450     0.00920
C468        C  0.20195255  0.69031502  0.99801096    -0.11250
C469        C  0.17467143  0.70415029  0.99711501     0.03420
C470        C  0.15134321  0.68222728  0.99936972    -0.10670
H471        H  0.18694220  0.60730180  0.00300628     0.09010
H472        H  0.22033570  0.70660970  0.99767945     0.06540
H473        H  0.13011985  0.69248713  0.99871441     0.06390
C474        C  0.15700416  0.64600984  0.50764807     0.03420
C475        C  0.18485698  0.63338014  0.50790177    -0.12730
C476        C  0.20794995  0.65551870  0.50815139     0.00920
C477        C  0.20325977  0.68987055  0.50874917    -0.11250
C478        C  0.17594306  0.70343160  0.50586414     0.03420
C479        C  0.15269150  0.68137786  0.50623800    -0.10670
H480        H  0.18854459  0.60663947  0.50690525     0.09010
H481        H  0.22151605  0.70637791  0.50901893     0.06540
H482        H  0.13147600  0.69157014  0.50384781     0.06390
Zn483      Zn  0.22066465  0.84555494  0.04111585     1.49720
Zn484      Zn  0.20983148  0.79757417  0.94987374     1.49360
Zn485      Zn  0.15832366  0.81212319  0.02852376     1.49110
Zn486      Zn  0.18176180  0.86641754  0.94912219     1.49480
O487        O  0.19199958  0.82988191  0.99303740    -1.83830
O488        O  0.25962414  0.82671438  0.02960874    -0.74460
O489        O  0.19384205  0.75418490  0.96794418    -0.74280
O490        O  0.16603425  0.81487196  0.10570234    -0.73800
O491        O  0.25190104  0.79473468  0.96173925    -0.74480
O492        O  0.20930494  0.83647206  0.11209117    -0.74080
O493        O  0.15451158  0.75988629  0.01331933    -0.74660
O494        O  0.14481346  0.88483551  0.96889928    -0.74050
O495        O  0.20320145  0.80528929  0.87578664    -0.74810
O496        O  0.12393104  0.84490108  0.01393463    -0.74200
O497        O  0.18080961  0.85399968  0.87488497    -0.74660
O498        O  0.20843427  0.90400957  0.95813013    -0.74570
O499        O  0.22685811  0.89358291  0.03404404    -0.74360
C500        C  0.26856087  0.80710946  0.99516651     0.77430
C501        C  0.17326853  0.74134812  0.99180012     0.77920
C502        C  0.18735087  0.82426374  0.13248642     0.76880
C503        C  0.12364129  0.87400351  0.99310153     0.77250
C504        C  0.19141430  0.82900048  0.85172694     0.78390
C505        C  0.22360965  0.91253445  0.99602772     0.77440
Zn506      Zn  0.15953027  0.81150952  0.53090234     1.49720
Zn507      Zn  0.22183427  0.84560480  0.53935078     1.49360
Zn508      Zn  0.20987387  0.79591131  0.45065145     1.49110
Zn509      Zn  0.18080126  0.86460277  0.44886921     1.49480
O510        O  0.19255949  0.82891019  0.49324329    -1.83830
O511        O  0.16793333  0.81615825  0.60663359    -0.74460
O512        O  0.26057238  0.82593555  0.52795340    -0.74280
O513        O  0.19447168  0.75260268  0.47218023    -0.73800
O514        O  0.21096378  0.83866351  0.61132303    -0.74480
O515        O  0.15571178  0.75924623  0.51895671    -0.74080
O516        O  0.25219993  0.79325320  0.46108614    -0.74660
O517        O  0.17710980  0.85012838  0.37516585    -0.74050
O518        O  0.22782565  0.89359614  0.52867376    -0.74810
O519        O  0.20165702  0.80278603  0.37640562    -0.74200
O520        O  0.20820315  0.90219454  0.45287097    -0.74660
O521        O  0.14468506  0.88386368  0.47377788    -0.74570
O522        O  0.12479721  0.84371146  0.51968166    -0.74360
C523        C  0.18891380  0.82724517  0.63250709     0.77430
C524        C  0.26917594  0.80577221  0.49393282     0.77920
C525        C  0.17432657  0.74032898  0.49790728     0.76880
C526        C  0.18796623  0.82510248  0.35227356     0.77370
C527        C  0.22379593  0.91164169  0.48981664     0.78390
C528        C  0.12424443  0.87315075  0.50021034     0.77440
C529        C  0.40538528  0.55478799  0.00040463     0.03420
C530        C  0.40134330  0.51932739  0.00001754    -0.12730
C531        C  0.42478037  0.99753548  0.00139373     0.00920
C532        C  0.45197571  0.51158522  0.00136367    -0.11250
C533        C  0.45637804  0.54598098  0.00088913     0.03420
C534        C  0.43310872  0.56779476  0.00055526    -0.10670
H535        H  0.38018475  0.50887018  0.00015657     0.09010
H536        H  0.47042998  0.49540654  0.00110035     0.06540
H537        H  0.43655504  0.59458047  0.00017959     0.06390
C538        C  0.40626644  0.55312380  0.50235773     0.03420
C539        C  0.40239858  0.51765914  0.50281390    -0.12730
C540        C  0.42591247  0.99600372  0.50179517     0.00920
C541        C  0.45307163  0.51019564  0.50192890    -0.11250
C542        C  0.45736789  0.54461745  0.50250795     0.03420
C543        C  0.43397410  0.56629687  0.50258256    -0.10670
H544        H  0.38129553  0.50704604  0.50246933     0.09010
H545        H  0.47158843  0.49412097  0.50242752     0.06540
H546        H  0.43731499  0.59310513  0.50298967     0.06390
Zn547      Zn  0.40770956  0.88985093  0.96766446     1.49720
Zn548      Zn  0.43263856  0.83499592  0.04442186     1.49360
Zn549      Zn  0.46999012  0.85656616  0.95230128     1.49110
Zn550      Zn  0.46019577  0.90340452  0.04583112     1.49480
O551        O  0.44204780  0.87184183  0.00132260    -1.83830
O552        O  0.37365421  0.85692714  0.98367623    -0.74460
O553        O  0.46048233  0.79865987  0.03747297    -0.74280
O554        O  0.45627730  0.86391135  0.88123770    -0.73800
O555        O  0.39608154  0.81571824  0.02397808    -0.74480
O556        O  0.41356916  0.88682716  0.89015881    -0.74080
O557        O  0.47789667  0.80866431  0.96105649    -0.74660
O558        O  0.50220330  0.90546810  0.03455607    -0.74050
O559        O  0.43065181  0.84733255  0.11801967    -0.74810
O560        O  0.00874534  0.87683291  0.96298511    -0.74200
O561        O  0.45320739  0.89575458  0.11991281    -0.74660
O562        O  0.44446392  0.94708189  0.02832580    -0.74570
O563        O  0.40436950  0.94199735  0.98383752    -0.74360
C564        C  0.37408898  0.82718659  0.00240697     0.77430
C565        C  0.47569018  0.79032156  0.99997316     0.77920
C566        C  0.43365318  0.87596909  0.86218432     0.76880
C567        C  0.01827951  0.89465993  0.99946017     0.77250
C568        C  0.44058263  0.87221782  0.14263175     0.78390
C569        C  0.42354014  0.96024740  0.00530406     0.77440
Zn570      Zn  0.43364713  0.83325951  0.46032961     1.49720
Zn571      Zn  0.40851349  0.88871128  0.53606557     1.49360
Zn572      Zn  0.47086086  0.85567376  0.55431951     1.49110
Zn573      Zn  0.46188508  0.90139119  0.46033853     1.49480
O574        O  0.44316013  0.87040457  0.50393494    -1.83830
O575        O  0.39690784  0.81443869  0.47928699    -0.74460
O576        O  0.41352677  0.88554513  0.61387337    -0.74280
O577        O  0.47969937  0.80800979  0.54433367    -0.73800
O578        O  0.37423228  0.85602696  0.51840023    -0.74480
O579        O  0.46103497  0.79659405  0.46863975    -0.74080
O580        O  0.45595520  0.86210079  0.62440869    -0.74660
O581        O  0.50374603  0.90423488  0.47521063    -0.74050
O582        O  0.40559317  0.94075047  0.51982340    -0.74810
O583        O  0.00945803  0.87693317  0.54770697    -0.74200
O584        O  0.44566241  0.94514962  0.47627377    -0.74660
O585        O  0.45594684  0.89261858  0.38562903    -0.74570
O586        O  0.43228637  0.84492680  0.38649369    -0.74360
C587        C  0.37478603  0.82606667  0.49986657     0.77430
C588        C  0.43307781  0.87383049  0.64254844     0.77920
C589        C  0.47683079  0.78889507  0.50591029     0.76880
C590        C  0.01936828  0.89437835  0.51183148     0.77250
C591        C  0.42472631  0.95865565  0.49850631     0.78390
C592        C  0.44332076  0.86892383  0.36225817     0.77440
C593        C  0.09883749  0.89688589  0.99667805     0.03420
C594        C  0.10304312  0.93231078  0.99742242    -0.12730
C595        C  0.07972889  0.95422579  0.00050005     0.00920
C596        C  0.05246158  0.94032455  0.00097150    -0.11250
C597        C  0.04788411  0.90599588  0.99921044     0.03420
C598        C  0.07104941  0.88405024  0.99730235    -0.10670
H599        H  0.12424909  0.94262154  0.99705792     0.09010
H600        H  0.03405174  0.95656078  0.00186780     0.06540
H601        H  0.06746795  0.85728973  0.99594776     0.06390
C602        C  0.09985579  0.89631806  0.50779398     0.03420
C603        C  0.10411036  0.93165257  0.50571037    -0.12730
C604        C  0.08086546  0.95369925  0.50740327     0.00920
C605        C  0.05362229  0.94012150  0.51155109    -0.11250
C606        C  0.04897881  0.90581104  0.51369605     0.03420
C607        C  0.07212451  0.88374304  0.51303469    -0.10670
H608        H  0.12519072  0.94180540  0.50111176     0.09010
H609        H  0.03534864  0.95658112  0.51248170     0.06540
H610        H  0.06843105  0.85699945  0.51337195     0.06390
Zn611      Zn  0.07261962  0.61701684  0.04710379     1.49720
Zn612      Zn  0.09616922  0.56171604  0.96790493     1.49360
Zn613      Zn  0.04457881  0.54834332  0.04605606     1.49110
Zn614      Zn  0.03380773  0.59561774  0.95523436     1.49480
O615        O  0.06242548  0.58015393  0.00304453    -1.83830
O616        O  0.10956526  0.63499492  0.02760345    -0.74460
O617        O  0.10003416  0.50969369  0.98364812    -0.74280
O618        O  0.05120078  0.55649040  0.11989082    -0.73800
O619        O  0.13057175  0.59466439  0.98267290    -0.74480
O620        O  0.07401950  0.60495527  0.12096305    -0.74080
O621        O  0.06048928  0.50480723  0.02838016    -0.74660
O622        O  0.49469533  0.57683133  0.96670044    -0.74050
O623        O  0.08854850  0.56333827  0.89059775    -0.74810
O624        O  0.00270652  0.54548460  0.03441826    -0.74200
O625        O  0.04580283  0.58605343  0.88446104    -0.74660
O626        O  0.02805042  0.64392734  0.96225972    -0.74570
O627        O  0.04654177  0.65514155  0.03810121    -0.74360
C628        C  0.13079289  0.62395300  0.00360451     0.77430
C629        C  0.08113909  0.49152652  0.00506302     0.77920
C630        C  0.06363822  0.57997986  0.14387505     0.76880
C631        C  0.48592002  0.55751348  0.00125913     0.77250
C632        C  0.06746430  0.57313909  0.86375739     0.78390
C633        C  0.03222777  0.66377266  0.99930589     0.77440
Zn634      Zn  0.07370698  0.61594352  0.46017117     1.49720
Zn635      Zn  0.09757408  0.56129151  0.53829288     1.49360
Zn636      Zn  0.03496341  0.59444803  0.55093713     1.49110
Zn637      Zn  0.04566168  0.54711319  0.45891238     1.49480
O638        O  0.06352642  0.57915190  0.50304511    -1.83830
O639        O  0.11078802  0.63394236  0.48017901    -0.74460
O640        O  0.09067435  0.56389681  0.61539373    -0.74280
O641        O  0.02903775  0.64286445  0.54508657    -0.73800
O642        O  0.13214645  0.59378412  0.52438006    -0.74480
O643        O  0.04776037  0.65373801  0.46998647    -0.74080
O644        O  0.04744904  0.58520843  0.62180128    -0.74660
O645        O  0.00367738  0.54430489  0.46978254    -0.74050
O646        O  0.10108915  0.50930842  0.52275146    -0.74810
O647        O  0.49579728  0.57551670  0.53821798    -0.74200
O648        O  0.06156649  0.50338296  0.47666131    -0.74660
O649        O  0.05170524  0.55591957  0.38516658    -0.74570
O650        O  0.07404753  0.60471262  0.38595562    -0.74360
C651        C  0.13221344  0.62303197  0.50408928     0.77430
C652        C  0.06986008  0.57370716  0.64242478     0.77920
C653        C  0.03330178  0.66244222  0.50829992     0.76880
C654        C  0.48693194  0.55626770  0.50291570     0.77250
C655        C  0.08226647  0.49072433  0.50101206     0.78390
C656        C  0.06323199  0.58007743  0.36204682     0.77440
C657        C  0.06800094  0.57017457  0.80720354    -0.05830
C658        C  0.09416333  0.56858009  0.78203901    -0.16960
C659        C  0.09580851  0.56957652  0.72869864     0.11370
C660        C  0.07065795  0.57164764  0.69908570    -0.05750
C661        C  0.04457745  0.57210090  0.72446476    -0.16990
C662        C  0.04287788  0.57094477  0.77732934     0.11400
S663        S  0.13067192  0.56995589  0.70149952    -0.31960
S664        S  0.50764381  0.56939549  0.80334667    -0.31960
H665        H  0.01427006  0.54422429  0.83861757     0.29410
H666        H  0.12497563  0.59744150  0.66991371     0.29400
H667        H  0.11362281  0.56794876  0.80407082     0.20000
H668        H  0.02496168  0.57284271  0.70286065     0.20000
C669        C  0.06324139  0.57997713  0.30630372    -0.05830
C670        C  0.08862817  0.58634780  0.28080476    -0.16960
C671        C  0.08971066  0.58544282  0.22768505     0.11370
C672        C  0.06474934  0.57874687  0.19955719    -0.05750
C673        C  0.03943555  0.57229336  0.22514161    -0.16990
C674        C  0.03829339  0.57339578  0.27805910     0.11400
S675        S  0.12365032  0.59156356  0.19821879    -0.31960
S676        S  0.50405178  0.56827618  0.30701051    -0.31960
H677        H  0.00870144  0.59174072  0.34634479     0.29410
H678        H  0.11855820  0.56981562  0.15684662     0.29400
H679        H  0.10782418  0.59122536  0.30240462     0.20000
H680        H  0.02013386  0.56770518  0.20366345     0.20000
C681        C  0.02043693  0.69560972  0.50890462    -0.05830
C682        C  0.01305088  0.70972051  0.46208002    -0.16960
C683        C  0.49968226  0.74055953  0.45965885     0.11370
C684        C  0.49219451  0.75711165  0.50528058    -0.05750
C685        C  0.49993520  0.74313530  0.55215525    -0.16990
C686        C  0.01455886  0.71304167  0.55446565     0.11400
S687        S  0.49426884  0.75764634  0.39719253    -0.31960
S688        S  0.02606462  0.69928026  0.61643221    -0.31960
H689        H  0.05278435  0.68828215  0.59988073     0.29410
H690        H  0.50364998  0.78991139  0.41096617     0.29400
H691        H  0.01787111  0.69672688  0.42686993     0.20000
H692        H  0.49486112  0.75589137  0.58742759     0.20000
C693        C  0.43084731  0.87598432  0.80605098    -0.05830
C694        C  0.43812821  0.84654307  0.77990103    -0.16960
C695        C  0.43723508  0.84470486  0.72685806     0.11370
C696        C  0.42955648  0.87322672  0.69843640    -0.05750
C697        C  0.42129238  0.90243109  0.72443159    -0.16990
C698        C  0.42218756  0.90423838  0.77785318     0.11400
S699        S  0.44571196  0.80492816  0.69779568    -0.31960
S700        S  0.41419800  0.94391938  0.80738838    -0.31960
H701        H  0.43465756  0.94134603  0.84630889     0.29410
H702        H  0.42705463  0.80841303  0.65620874     0.29400
H703        H  0.44441172  0.82458883  0.80108804     0.20000
H704        H  0.41565828  0.92451275  0.70302617     0.20000
C705        C  0.43873298  0.87252158  0.19873681    -0.05830
C706        C  0.43906399  0.84159955  0.22360737    -0.16960
C707        C  0.44089727  0.83966160  0.27643914     0.11370
C708        C  0.44160533  0.86935679  0.30604161    -0.05750
C709        C  0.44064062  0.90035165  0.28125867    -0.16990
C710        C  0.43888075  0.90228142  0.22821397     0.11400
S711        S  0.44472724  0.79850771  0.30296000    -0.31960
S712        S  0.43583405  0.94338113  0.20095396    -0.31960
H713        H  0.41636993  0.93362902  0.16285277     0.29410
H714        H  0.46690054  0.80831958  0.33575534     0.29400
H715        H  0.43939298  0.81856774  0.20162252     0.20000
H716        H  0.44073581  0.92331257  0.30340941     0.20000
C717        C  0.01945915  0.69713749  0.99814436    -0.05830
C718        C  0.01454128  0.71340045  0.04471141    -0.16960
C719        C  0.50111290  0.74430037  0.04658247     0.11370
C720        C  0.49114364  0.75868318  0.00096347    -0.05750
C721        C  0.49646805  0.74274749  0.95438633    -0.16990
C722        C  0.01107489  0.71265266  0.95228946     0.11400
S723        S  0.49865529  0.76441985  0.10802690    -0.31960
S724        S  0.01910270  0.69649035  0.88980186    -0.31960
H725        H  0.04715335  0.68780899  0.90245936     0.29410
H726        H  0.50620319  0.79626176  0.09010923     0.29400
H727        H  0.02127979  0.70208825  0.08007798     0.20000
H728        H  0.48944310  0.75397038  0.91911675     0.20000
C729        C  0.18828471  0.82684109  0.68857266    -0.05830
C730        C  0.21332147  0.81826134  0.71442909    -0.16960
C731        C  0.21492879  0.81904350  0.76740746     0.11370
C732        C  0.19074618  0.82788303  0.79577335    -0.05750
C733        C  0.16562341  0.83635536  0.77010436    -0.16990
C734        C  0.16418111  0.83618723  0.71689514     0.11400
S735        S  0.24891927  0.81029751  0.79617983    -0.31960
S736        S  0.13153623  0.84979860  0.68773622    -0.31960
H737        H  0.14459159  0.86826582  0.64909956     0.29410
H738        H  0.24686032  0.83519445  0.83408273     0.29400
H739        H  0.23200727  0.81145082  0.69312207     0.20000
H740        H  0.14711435  0.84351198  0.79162740     0.20000
C741        C  0.18694906  0.82132946  0.18867001    -0.05830
C742        C  0.16167200  0.82766243  0.21492897    -0.16960
C743        C  0.16101978  0.82818544  0.26829638     0.11370
C744        C  0.18621681  0.82255216  0.29626952    -0.05750
C745        C  0.21120138  0.81520988  0.27007536    -0.16990
C746        C  0.21185855  0.81426029  0.21702849     0.11400
S747        S  0.12738684  0.83550557  0.29832851    -0.31960
S748        S  0.24518588  0.80319205  0.18829680    -0.31960
H749        H  0.23299699  0.78370710  0.14908346     0.29410
H750        H  0.13271715  0.81493780  0.34048236     0.29400
H751        H  0.14241243  0.83281948  0.19381132     0.20000
H752        H  0.23057719  0.81053117  0.29118988     0.20000
C753        C  0.26305516  0.50745146  0.49230250    -0.05830
C754        C  0.25992046  0.99042912  0.44582510    -0.16960
C755        C  0.24751880  0.95886031  0.44363631     0.11370
C756        C  0.23731750  0.94446351  0.48878449    -0.05750
C757        C  0.24002993  0.96182982  0.53505714    -0.16990
C758        C  0.25243473  0.99327972  0.53727729     0.11400
S759        S  0.24714217  0.93762755  0.38290428    -0.31960
S760        S  0.25280987  0.51439783  0.59819876    -0.31960
H761        H  0.24672399  0.54620231  0.57832409     0.29410
H762        H  0.25481498  0.90629848  0.40277441     0.29400
H763        H  0.26824250  0.00116843  0.41132685     0.20000
H764        H  0.23182074  0.95114953  0.56969563     0.20000
C765        C  0.31679154  0.61875442  0.69684972    -0.05830
C766        C  0.30272623  0.59288489  0.72199594    -0.16960
C767        C  0.30026857  0.59310671  0.77481756     0.11370
C768        C  0.31289311  0.61922722  0.80337147    -0.05750
C769        C  0.32714733  0.64500910  0.77837454    -0.16990
C770        C  0.32948273  0.64486253  0.72539553     0.11400
S771        S  0.27939695  0.56046083  0.80323790    -0.31960
S772        S  0.34974207  0.67785211  0.69665714    -0.31960
H773        H  0.35969021  0.65842233  0.65571236     0.29410
H774        H  0.26830677  0.58042690  0.84259646     0.29400
H775        H  0.29247691  0.57315475  0.70017111     0.20000
H776        H  0.33705479  0.66490832  0.80031866     0.20000
C777        C  0.32210234  0.62705850  0.19678192    -0.05830
C778        C  0.31547008  0.59746825  0.22251145    -0.16960
C779        C  0.31620572  0.59589107  0.27561978     0.11370
C780        C  0.32313844  0.62474726  0.30449480    -0.05750
C781        C  0.33052648  0.65420552  0.27894989    -0.16990
C782        C  0.32970885  0.65579079  0.22550738     0.11400
S783        S  0.30851112  0.55605687  0.30428279    -0.31960
S784        S  0.33650341  0.69568693  0.19654931    -0.31960
H785        H  0.31670026  0.69180721  0.15672045     0.29410
H786        H  0.32666100  0.56039308  0.34648479     0.29400
H787        H  0.30983831  0.57520083  0.20093599     0.20000
H788        H  0.33555341  0.67655361  0.30075573     0.20000
C789        C  0.23804278  0.94492683  0.99671632    -0.05830
C790        C  0.24623679  0.95817374  0.04422857    -0.16960
C791        C  0.26100239  0.98810684  0.04798438     0.11370
C792        C  0.26653263  0.50619132  0.00338819    -0.05750
C793        C  0.25829721  0.99314648  0.95590954    -0.16990
C794        C  0.24475117  0.96241772  0.95189231     0.11400
S795        S  0.27336526  0.00067207  0.11034858    -0.31960
S796        S  0.23814427  0.94664764  0.88846656    -0.31960
H797        H  0.24931855  0.91473084  0.89866638     0.29410
H798        H  0.29999305  0.51165622  0.09356111     0.29400
H799        H  0.24165991  0.94481129  0.07887566     0.20000
H800        H  0.26274181  0.50681228  0.92145442     0.20000
C801        C  0.84912339  0.30440524  0.99984657     0.03420
C802        C  0.85311455  0.26895953  0.00146291    -0.12730
C803        C  0.82968409  0.24716487  0.99947183     0.00920
C804        C  0.80249547  0.26122044  0.99735564    -0.11250
C805        C  0.79811075  0.29558448  0.99645521     0.03420
C806        C  0.82139830  0.31739209  0.99769317    -0.10670
H807        H  0.87424479  0.25845965  0.00280195     0.09010
H808        H  0.78400453  0.24509245  0.99717629     0.06540
H809        H  0.81794788  0.34417564  0.99727250     0.06390
C810        C  0.84979506  0.30325709  0.50072937     0.03420
C811        C  0.85394999  0.26786572  0.49873713    -0.12730
C812        C  0.83063177  0.24599355  0.49558138     0.00920
C813        C  0.80345618  0.25984540  0.49140330    -0.11250
C814        C  0.79880658  0.29420970  0.49473926     0.03420
C815        C  0.82197317  0.31604068  0.50055531    -0.10670
H816        H  0.87509054  0.25745743  0.50105067     0.09010
H817        H  0.78524074  0.24341545  0.48777584     0.06540
H818        H  0.81840579  0.34278097  0.50260365     0.06390
Zn819      Zn  0.82146102  0.08414629  0.95724322     1.49720
Zn820      Zn  0.84632139  0.13978020  0.03527792     1.49360
Zn821      Zn  0.79451610  0.15272070  0.95595033     1.49110
Zn822      Zn  0.78378971  0.10664876  0.04949198     1.49480
O823        O  0.81214027  0.12136825  0.00076092    -1.83830
O824        O  0.85868199  0.06617524  0.97557998    -0.74460
O825        O  0.84984268  0.19188029  0.01910055    -0.74280
O826        O  0.80161647  0.14477780  0.88188828    -0.73800
O827        O  0.88052320  0.10689379  0.01901929    -0.74480
O828        O  0.82095013  0.09433401  0.88314280    -0.74080
O829        O  0.81023107  0.19627326  0.97334325    -0.74660
O830        O  0.74513437  0.12676006  0.03745395    -0.74050
O831        O  0.83998522  0.13719898  0.11296334    -0.74810
O832        O  0.75255603  0.15523319  0.96665275    -0.74200
O833        O  0.79701760  0.11484291  0.12092484    -0.74660
O834        O  0.77630785  0.05840863  0.04179271    -0.74570
O835        O  0.79526195  0.04700934  0.96682160    -0.74360
C836        C  0.88041086  0.07749047  0.99840899     0.77430
C837        C  0.83092883  0.20980405  0.99671319     0.77920
C838        C  0.81196926  0.11960429  0.85902125     0.76880
C839        C  0.73608580  0.14460493  0.00101530     0.77250
C840        C  0.81963732  0.12674505  0.14051588     0.78390
C841        C  0.78026682  0.03881346  0.00442733     0.77440
Zn842      Zn  0.82172829  0.08233844  0.54200956     1.49720
Zn843      Zn  0.79708951  0.15244249  0.54551986     1.49360
Zn844      Zn  0.84736563  0.13784099  0.46630169     1.49110
Zn845      Zn  0.78389931  0.10719434  0.45077263     1.49480
O846        O  0.81315832  0.12023493  0.49991838    -1.83830
O847        O  0.82150023  0.09251292  0.61660523    -0.74460
O848        O  0.81136064  0.19627186  0.52549706    -0.74280
O849        O  0.88144968  0.10520510  0.48406416    -0.73800
O850        O  0.80688918  0.14515919  0.61864496    -0.74480
O851        O  0.85909059  0.06411253  0.52431559    -0.74080
O852        O  0.85084762  0.19019866  0.48066308    -0.74660
O853        O  0.79684186  0.11558510  0.37934755    -0.74050
O854        O  0.75474313  0.15396106  0.53950551    -0.74810
O855        O  0.84115528  0.13406827  0.38878336    -0.74200
O856        O  0.74581276  0.12808054  0.46607554    -0.74660
O857        O  0.77505954  0.05898770  0.45582098    -0.74570
O858        O  0.79438984  0.04604159  0.53023077    -0.74360
C859        C  0.81543292  0.11900563  0.64110754     0.77430
C860        C  0.83191622  0.20888456  0.50136404     0.77920
C861        C  0.88112882  0.07566292  0.50349482     0.76880
C862        C  0.82027194  0.12512792  0.36057415     0.77250
C863        C  0.73751439  0.14434140  0.50498471     0.78390
C864        C  0.77828089  0.03917651  0.49284816     0.77440
C865        C  0.65558170  0.14682450  0.00056797     0.03420
C866        C  0.68336353  0.13403939  0.00129052    -0.12730
C867        C  0.70652079  0.15599868  0.00026450     0.00920
C868        C  0.70195255  0.19031503  0.99801096    -0.11250
C869        C  0.67467143  0.20415029  0.99711502     0.03420
C870        C  0.65134321  0.18222728  0.99936973    -0.10670
H871        H  0.68694220  0.10730181  0.00300629     0.09010
H872        H  0.72033570  0.20660971  0.99767945     0.06540
H873        H  0.63011985  0.19248713  0.99871443     0.06390
C874        C  0.65700416  0.14600984  0.50764808     0.03420
C875        C  0.68485698  0.13338014  0.50790178    -0.12730
C876        C  0.70794995  0.15551870  0.50815139     0.00920
C877        C  0.70325977  0.18987055  0.50874917    -0.11250
C878        C  0.67594306  0.20343160  0.50586414     0.03420
C879        C  0.65269150  0.18137786  0.50623800    -0.10670
H880        H  0.68854459  0.10663947  0.50690526     0.09010
H881        H  0.72151605  0.20637790  0.50901892     0.06540
H882        H  0.63147600  0.19157014  0.50384781     0.06390
Zn883      Zn  0.72066466  0.34555495  0.04111584     1.49720
Zn884      Zn  0.70983148  0.29757418  0.94987375     1.49360
Zn885      Zn  0.65832366  0.31212319  0.02852378     1.49110
Zn886      Zn  0.68176180  0.36641755  0.94912219     1.49480
O887        O  0.69199958  0.32988192  0.99303741    -1.83830
O888        O  0.75962414  0.32671439  0.02960874    -0.74460
O889        O  0.69384205  0.25418490  0.96794418    -0.74280
O890        O  0.66603426  0.31487196  0.10570236    -0.73800
O891        O  0.75190104  0.29473468  0.96173925    -0.74480
O892        O  0.70930495  0.33647208  0.11209117    -0.74080
O893        O  0.65451159  0.25988629  0.01331934    -0.74660
O894        O  0.64481346  0.38483551  0.96889928    -0.74050
O895        O  0.70320145  0.30528929  0.87578665    -0.74810
O896        O  0.62393104  0.34490108  0.01393465    -0.74200
O897        O  0.68080960  0.35399968  0.87488497    -0.74660
O898        O  0.70843426  0.40400957  0.95813012    -0.74570
O899        O  0.72685811  0.39358292  0.03404403    -0.74360
C900        C  0.76856087  0.30710946  0.99516651     0.77430
C901        C  0.67326853  0.24134812  0.99180012     0.77920
C902        C  0.68735089  0.32426375  0.13248643     0.76880
C903        C  0.62364129  0.37400351  0.99310154     0.77250
C904        C  0.69141429  0.32900048  0.85172695     0.78390
C905        C  0.72360965  0.41253446  0.99602771     0.77440
Zn906      Zn  0.65953027  0.31150952  0.53090234     1.49720
Zn907      Zn  0.72183427  0.34560480  0.53935079     1.49360
Zn908      Zn  0.70987387  0.29591131  0.45065146     1.49110
Zn909      Zn  0.68080126  0.36460277  0.44886922     1.49480
O910        O  0.69255949  0.32891019  0.49324330    -1.83830
O911        O  0.66793333  0.31615825  0.60663360    -0.74460
O912        O  0.76057238  0.32593555  0.52795341    -0.74280
O913        O  0.69447168  0.25260268  0.47218023    -0.73800
O914        O  0.71096378  0.33866351  0.61132303    -0.74480
O915        O  0.65571178  0.25924623  0.51895671    -0.74080
O916        O  0.75219993  0.29325319  0.46108616    -0.74660
O917        O  0.67710980  0.35012838  0.37516586    -0.74050
O918        O  0.72782566  0.39359614  0.52867377    -0.74810
O919        O  0.70165703  0.30278603  0.37640563    -0.74200
O920        O  0.70820315  0.40219454  0.45287098    -0.74660
O921        O  0.64468506  0.38386367  0.47377789    -0.74570
O922        O  0.62479721  0.34371146  0.51968166    -0.74360
C923        C  0.68891380  0.32724517  0.63250709     0.77430
C924        C  0.76917594  0.30577221  0.49393283     0.77920
C925        C  0.67432658  0.24032898  0.49790729     0.76880
C926        C  0.68796623  0.32510248  0.35227356     0.77370
C927        C  0.72379593  0.41164169  0.48981665     0.78390
C928        C  0.62424443  0.37315075  0.50021035     0.77440
C929        C  0.90538528  0.05478799  0.00040463     0.03420
C930        C  0.90134330  0.01932739  0.00001755    -0.12730
C931        C  0.92478036  0.49753547  0.00139374     0.00920
C932        C  0.95197571  0.01158521  0.00136367    -0.11250
C933        C  0.95637804  0.04598098  0.00088913     0.03420
C934        C  0.93310872  0.06779475  0.00055526    -0.10670
H935        H  0.88018475  0.00887018  0.00015658     0.09010
H936        H  0.97042998  0.99540654  0.00110035     0.06540
H937        H  0.93655504  0.09458047  0.00017959     0.06390
C938        C  0.90626644  0.05312380  0.50235772     0.03420
C939        C  0.90239858  0.01765914  0.50281389    -0.12730
C940        C  0.92591247  0.49600372  0.50179515     0.00920
C941        C  0.95307163  0.01019564  0.50192888    -0.11250
C942        C  0.95736788  0.04461745  0.50250793     0.03420
C943        C  0.93397410  0.06629686  0.50258255    -0.10670
H944        H  0.88129553  0.00704604  0.50246933     0.09010
H945        H  0.97158843  0.99412096  0.50242750     0.06540
H946        H  0.93731499  0.09310513  0.50298966     0.06390
Zn947      Zn  0.90770956  0.38985093  0.96766446     1.49720
Zn948      Zn  0.93263856  0.33499592  0.04442185     1.49360
Zn949      Zn  0.96999011  0.35656616  0.95230127     1.49110
Zn950      Zn  0.96019577  0.40340451  0.04583112     1.49480
O951        O  0.94204780  0.37184182  0.00132260    -1.83830
O952        O  0.87365421  0.35692714  0.98367624    -0.74460
O953        O  0.96048233  0.29865987  0.03747297    -0.74280
O954        O  0.95627729  0.36391136  0.88123770    -0.73800
O955        O  0.89608154  0.31571823  0.02397807    -0.74480
O956        O  0.91356916  0.38682717  0.89015881    -0.74080
O957        O  0.97789667  0.30866431  0.96105647    -0.74660
O958        O  0.00220330  0.40546809  0.03455607    -0.74050
O959        O  0.93065181  0.34733255  0.11801967    -0.74810
O960        O  0.50874534  0.37683291  0.96298512    -0.74200
O961        O  0.95320739  0.39575457  0.11991281    -0.74660
O962        O  0.94446391  0.44708188  0.02832581    -0.74570
O963        O  0.90436950  0.44199735  0.98383753    -0.74360
C964        C  0.87408898  0.32718659  0.00240697     0.77430
C965        C  0.97569018  0.29032156  0.99997315     0.77920
C966        C  0.93365318  0.37596909  0.86218432     0.76880
C967        C  0.51827951  0.39465993  0.99946018     0.77250
C968        C  0.94058263  0.37221781  0.14263175     0.78390
C969        C  0.92354013  0.46024739  0.00530407     0.77440
Zn970      Zn  0.93364713  0.33325951  0.46032962     1.49720
Zn971      Zn  0.90851349  0.38871129  0.53606556     1.49360
Zn972      Zn  0.97086086  0.35567377  0.55431951     1.49110
Zn973      Zn  0.96188508  0.40139119  0.46033853     1.49480
O974        O  0.94316013  0.37040458  0.50393494    -1.83830
O975        O  0.89690785  0.31443868  0.47928701    -0.74460
O976        O  0.91352677  0.38554514  0.61387337    -0.74280
O977        O  0.97969936  0.30800980  0.54433368    -0.73800
O978        O  0.87423228  0.35602696  0.51840022    -0.74480
O979        O  0.96103498  0.29659406  0.46863975    -0.74080
O980        O  0.95595519  0.36210080  0.62440869    -0.74660
O981        O  0.00374603  0.40423488  0.47521063    -0.74050
O982        O  0.90559317  0.44075047  0.51982339    -0.74810
O983        O  0.50945803  0.37693317  0.54770697    -0.74200
O984        O  0.94566241  0.44514962  0.47627376    -0.74660
O985        O  0.95594684  0.39261857  0.38562903    -0.74570
O986        O  0.93228636  0.34492680  0.38649370    -0.74360
C987        C  0.87478603  0.32606667  0.49986657     0.77430
C988        C  0.93307781  0.37383049  0.64254844     0.77920
C989        C  0.97683080  0.28889509  0.50591030     0.76880
C990        C  0.51936828  0.39437835  0.51183148     0.77250
C991        C  0.92472631  0.45865565  0.49850629     0.78390
C992        C  0.94332076  0.36892383  0.36225817     0.77440
C993        C  0.59883749  0.39688589  0.99667807     0.03420
C994        C  0.60304312  0.43231078  0.99742244    -0.12730
C995        C  0.57972889  0.45422579  0.00050007     0.00920
C996        C  0.55246158  0.44032455  0.00097152    -0.11250
C997        C  0.54788411  0.40599588  0.99921045     0.03420
C998        C  0.57104940  0.38405024  0.99730237    -0.10670
H999        H  0.62424909  0.44262154  0.99705794     0.09010
H1000       H  0.53405174  0.45656078  0.00186781     0.06540
H1001       H  0.56746795  0.35728973  0.99594778     0.06390
C1002       C  0.59985579  0.39631806  0.50779399     0.03420
C1003       C  0.60411036  0.43165257  0.50571037    -0.12730
C1004       C  0.58086546  0.45369925  0.50740327     0.00920
C1005       C  0.55362229  0.44012150  0.51155109    -0.11250
C1006       C  0.54897881  0.40581104  0.51369605     0.03420
C1007       C  0.57212451  0.38374304  0.51303469    -0.10670
H1008       H  0.62519072  0.44180539  0.50111177     0.09010
H1009       H  0.53534864  0.45658112  0.51248170     0.06540
H1010       H  0.56843105  0.35699945  0.51337195     0.06390
Zn1011     Zn  0.57261962  0.11701684  0.04710379     1.49720
Zn1012     Zn  0.59616922  0.06171604  0.96790494     1.49360
Zn1013     Zn  0.54457881  0.04834333  0.04605607     1.49110
Zn1014     Zn  0.53380774  0.09561774  0.95523435     1.49480
O1015       O  0.56242548  0.08015393  0.00304453    -1.83830
O1016       O  0.60956526  0.13499493  0.02760346    -0.74460
O1017       O  0.60003417  0.00969369  0.98364814    -0.74280
O1018       O  0.55120079  0.05649040  0.11989083    -0.73800
O1019       O  0.63057175  0.09466439  0.98267292    -0.74480
O1020       O  0.57401949  0.10495528  0.12096306    -0.74080
O1021       O  0.56048928  0.00480723  0.02838016    -0.74660
O1022       O  0.99469533  0.07683132  0.96670043    -0.74050
O1023       O  0.58854852  0.06333827  0.89059777    -0.74810
O1024       O  0.50270652  0.04548461  0.03441827    -0.74200
O1025       O  0.54580284  0.08605341  0.88446103    -0.74660
O1026       O  0.52805042  0.14392734  0.96225969    -0.74570
O1027       O  0.54654177  0.15514155  0.03810119    -0.74360
C1028       C  0.63079290  0.12395300  0.00360453     0.77430
C1029       C  0.58113909  0.99152652  0.00506303     0.77920
C1030       C  0.56363822  0.07997987  0.14387506     0.76880
C1031       C  0.98592002  0.05751347  0.00125912     0.77250
C1032       C  0.56746431  0.07313907  0.86375739     0.78390
C1033       C  0.53222777  0.16377267  0.99930587     0.77440
Zn1034     Zn  0.57370697  0.11594351  0.46017119     1.49720
Zn1035     Zn  0.59757408  0.06129151  0.53829290     1.49360
Zn1036     Zn  0.53496341  0.09444803  0.55093716     1.49110
Zn1037     Zn  0.54566168  0.04711319  0.45891241     1.49480
O1038       O  0.56352641  0.07915190  0.50304514    -1.83830
O1039       O  0.61078802  0.13394236  0.48017902    -0.74460
O1040       O  0.59067435  0.06389681  0.61539375    -0.74280
O1041       O  0.52903776  0.14286445  0.54508661    -0.73800
O1042       O  0.63214645  0.09378412  0.52438007    -0.74480
O1043       O  0.54776036  0.15373801  0.46998650    -0.74080
O1044       O  0.54744903  0.08520842  0.62180131    -0.74660
O1045       O  0.50367738  0.04430489  0.46978256    -0.74050
O1046       O  0.60108915  0.00930842  0.52275147    -0.74810
O1047       O  0.99579728  0.07551669  0.53821797    -0.74200
O1048       O  0.56156649  0.00338296  0.47666132    -0.74660
O1049       O  0.55170523  0.05591957  0.38516660    -0.74570
O1050       O  0.57404752  0.10471262  0.38595564    -0.74360
C1051       C  0.63221343  0.12303197  0.50408929     0.77430
C1052       C  0.56986008  0.07370714  0.64242480     0.77920
C1053       C  0.53330178  0.16244222  0.50829995     0.76880
C1054       C  0.98693194  0.05626769  0.50291569     0.77250
C1055       C  0.58226647  0.99072433  0.50101208     0.78390
C1056       C  0.56323198  0.08007743  0.36204683     0.77440
C1057       C  0.56800096  0.07017453  0.80720356    -0.05830
C1058       C  0.59416335  0.06858018  0.78203903    -0.16960
C1059       C  0.59580853  0.06957663  0.72869865     0.11370
C1060       C  0.57065795  0.07164762  0.69908572    -0.05750
C1061       C  0.54457746  0.07210073  0.72446478    -0.16990
C1062       C  0.54287790  0.07094459  0.77732936     0.11400
S1063       S  0.63067194  0.06995620  0.70149952    -0.31960
S1064       S  0.00764382  0.06939537  0.80334667    -0.31960
H1065       H  0.51427021  0.04422401  0.83861771     0.29410
H1066       H  0.62497551  0.09744175  0.66991364     0.29400
H1067       H  0.61362283  0.06794896  0.80407083     0.20000
H1068       H  0.52496168  0.07284243  0.70286067     0.20000
C1069       C  0.56324138  0.07997713  0.30630373    -0.05830
C1070       C  0.58862815  0.08634786  0.28080478    -0.16960
C1071       C  0.58971065  0.08544289  0.22768507     0.11370
C1072       C  0.56474934  0.07874688  0.19955720    -0.05750
C1073       C  0.53943556  0.07229330  0.22514162    -0.16990
C1074       C  0.53829340  0.07339572  0.27805910     0.11400
S1075       S  0.62365030  0.09156371  0.19821882    -0.31960
S1076       S  0.00405179  0.06827605  0.30701048    -0.31960
H1077       H  0.50870140  0.09174060  0.34634478     0.29410
H1078       H  0.61855822  0.06981574  0.15684666     0.29400
H1079       H  0.60782415  0.09122547  0.30240464     0.20000
H1080       H  0.52013388  0.06770508  0.20366346     0.20000
C1081       C  0.52043692  0.19560971  0.50890465    -0.05830
C1082       C  0.51305086  0.20972049  0.46208005    -0.16960
C1083       C  0.99968232  0.24055958  0.45965886     0.11370
C1084       C  0.99219452  0.25711166  0.50528059    -0.05750
C1085       C  0.99993516  0.24313529  0.55215526    -0.16990
C1086       C  0.51455887  0.21304168  0.55446566     0.11400
S1087       S  0.99426897  0.25764644  0.39719255    -0.31960
S1088       S  0.52606466  0.19928029  0.61643223    -0.31960
H1089       H  0.55278439  0.18828217  0.59988071     0.29410
H1090       H  0.00365006  0.28991150  0.41096629     0.29400
H1091       H  0.51787107  0.19672685  0.42686996     0.20000
H1092       H  0.99486104  0.25589133  0.58742760     0.20000
C1093       C  0.93084730  0.37598432  0.80605098    -0.05830
C1094       C  0.93812819  0.34654307  0.77990103    -0.16960
C1095       C  0.93723506  0.34470487  0.72685806     0.11370
C1096       C  0.92955648  0.37322672  0.69843640    -0.05750
C1097       C  0.92129239  0.40243110  0.72443159    -0.16990
C1098       C  0.92218756  0.40423840  0.77785318     0.11400
S1099       S  0.94571192  0.30492816  0.69779568    -0.31960
S1100       S  0.91419803  0.44391940  0.80738839    -0.31960
H1101       H  0.93465758  0.44134603  0.84630890     0.29410
H1102       H  0.92705460  0.30841304  0.65620873     0.29400
H1103       H  0.94441169  0.32458883  0.80108804     0.20000
H1104       H  0.91565830  0.42451277  0.70302618     0.20000
C1105       C  0.93873298  0.37252157  0.19873681    -0.05830
C1106       C  0.93906398  0.34159954  0.22360737    -0.16960
C1107       C  0.94089726  0.33966159  0.27643914     0.11370
C1108       C  0.94160533  0.36935679  0.30604161    -0.05750
C1109       C  0.94064063  0.40035164  0.28125867    -0.16990
C1110       C  0.93888076  0.40228141  0.22821397     0.11400
S1111       S  0.94472721  0.29850770  0.30296001    -0.31960
S1112       S  0.93583407  0.44338112  0.20095396    -0.31960
H1113       H  0.91636994  0.43362902  0.16285278     0.29410
H1114       H  0.96690051  0.30831956  0.33575535     0.29400
H1115       H  0.93939296  0.31856773  0.20162252     0.20000
H1116       H  0.94073582  0.42331256  0.30340941     0.20000
C1117       C  0.51945915  0.19713750  0.99814434    -0.05830
C1118       C  0.51454128  0.21340045  0.04471139    -0.16960
C1119       C  0.00111292  0.24430038  0.04658244     0.11370
C1120       C  0.99114364  0.25868318  0.00096344    -0.05750
C1121       C  0.99646802  0.24274748  0.95438630    -0.16990
C1122       C  0.51107489  0.21265266  0.95228944     0.11400
S1123       S  0.99865534  0.26441988  0.10802687    -0.31960
S1124       S  0.51910270  0.19649036  0.88980184    -0.31960
H1125       H  0.54715336  0.18780900  0.90245934     0.29410
H1126       H  0.00620322  0.29626178  0.09010917     0.29400
H1127       H  0.52127979  0.20208825  0.08007796     0.20000
H1128       H  0.98944305  0.25397036  0.91911673     0.20000
C1129       C  0.68828471  0.32684109  0.68857267    -0.05830
C1130       C  0.71332148  0.31826136  0.71442910    -0.16960
C1131       C  0.71492879  0.31904352  0.76740747     0.11370
C1132       C  0.69074617  0.32788303  0.79577336    -0.05750
C1133       C  0.66562340  0.33635535  0.77010436    -0.16990
C1134       C  0.66418110  0.33618722  0.71689515     0.11400
S1135       S  0.74891928  0.31029756  0.79617983    -0.31960
S1136       S  0.63153621  0.34979856  0.68773622    -0.31960
H1137       H  0.64459157  0.36826580  0.64909957     0.29410
H1138       H  0.74686031  0.33519450  0.83408274     0.29400
H1139       H  0.73200727  0.31145085  0.69312207     0.20000
H1140       H  0.64711434  0.34351195  0.79162740     0.20000
C1141       C  0.68694907  0.32132947  0.18867002    -0.05830
C1142       C  0.66167200  0.32766240  0.21492898    -0.16960
C1143       C  0.66101978  0.32818540  0.26829639     0.11370
C1144       C  0.68621682  0.32255217  0.29626953    -0.05750
C1145       C  0.71120141  0.31520994  0.27007537    -0.16990
C1146       C  0.71185858  0.31426035  0.21702850     0.11400
S1147       S  0.62738684  0.33550546  0.29832852    -0.31960
S1148       S  0.74518593  0.30319218  0.18829682    -0.31960
H1149       H  0.73299707  0.28370718  0.14908350     0.29410
H1150       H  0.63271718  0.31493771  0.34048238     0.29400
H1151       H  0.64241243  0.33281940  0.19381133     0.20000
H1152       H  0.73057722  0.31053127  0.29118989     0.20000
C1153       C  0.76305516  0.00745146  0.49230251    -0.05830
C1154       C  0.75992047  0.49042912  0.44582510    -0.16960
C1155       C  0.74751881  0.45886031  0.44363632     0.11370
C1156       C  0.73731750  0.44446351  0.48878449    -0.05750
C1157       C  0.74002993  0.46182982  0.53505714    -0.16990
C1158       C  0.75243472  0.49327972  0.53727730     0.11400
S1159       S  0.74714218  0.43762754  0.38290429    -0.31960
S1160       S  0.75280985  0.01439784  0.59819875    -0.31960
H1161       H  0.74672398  0.04620232  0.57832408     0.29410
H1162       H  0.75481499  0.40629847  0.40277443     0.29400
H1163       H  0.76824251  0.50116843  0.41132686     0.20000
H1164       H  0.73182073  0.45114954  0.56969563     0.20000
C1165       C  0.81679154  0.11875441  0.69684973    -0.05830
C1166       C  0.80272623  0.09288488  0.72199594    -0.16960
C1167       C  0.80026857  0.09310670  0.77481756     0.11370
C1168       C  0.81289311  0.11922721  0.80337148    -0.05750
C1169       C  0.82714733  0.14500909  0.77837455    -0.16990
C1170       C  0.82948274  0.14486252  0.72539554     0.11400
S1171       S  0.77939695  0.06046082  0.80323790    -0.31960
S1172       S  0.84974208  0.17785210  0.69665714    -0.31960
H1173       H  0.85969021  0.15842232  0.65571237     0.29410
H1174       H  0.76830677  0.08042689  0.84259646     0.29400
H1175       H  0.79247691  0.07315474  0.70017111     0.20000
H1176       H  0.83705480  0.16490831  0.80031867     0.20000
C1177       C  0.82210234  0.12705850  0.19678192    -0.05830
C1178       C  0.81547008  0.09746825  0.22251145    -0.16960
C1179       C  0.81620572  0.09589107  0.27561978     0.11370
C1180       C  0.82313843  0.12474726  0.30449481    -0.05750
C1181       C  0.83052648  0.15420551  0.27894990    -0.16990
C1182       C  0.82970885  0.15579079  0.22550739     0.11400
S1183       S  0.80851111  0.05605687  0.30428279    -0.31960
S1184       S  0.83650342  0.19568692  0.19654931    -0.31960
H1185       H  0.81670026  0.19180721  0.15672046     0.29410
H1186       H  0.82666099  0.06039307  0.34648479     0.29400
H1187       H  0.80983830  0.07520083  0.20093599     0.20000
H1188       H  0.83555342  0.17655360  0.30075573     0.20000
C1189       C  0.73804278  0.44492684  0.99671631    -0.05830
C1190       C  0.74623677  0.45817375  0.04422856    -0.16960
C1191       C  0.76100237  0.48810685  0.04798438     0.11370
C1192       C  0.76653263  0.00619132  0.00338820    -0.05750
C1193       C  0.75829721  0.49314648  0.95590954    -0.16990
C1194       C  0.74475116  0.46241772  0.95189231     0.11400
S1195       S  0.77336523  0.50067208  0.11034859    -0.31960
S1196       S  0.73814428  0.44664764  0.88846655    -0.31960
H1197       H  0.74931855  0.41473084  0.89866638     0.29410
H1198       H  0.79999302  0.01165623  0.09356116     0.29400
H1199       H  0.74165989  0.44481130  0.07887566     0.20000
H1200       H  0.76274184  0.00681226  0.92145442     0.20000
C1201       C  0.84912339  0.80440524  0.99984656     0.03420
C1202       C  0.85311455  0.76895953  0.00146290    -0.12730
C1203       C  0.82968409  0.74716488  0.99947183     0.00920
C1204       C  0.80249547  0.76122044  0.99735564    -0.11250
C1205       C  0.79811075  0.79558448  0.99645521     0.03420
C1206       C  0.82139830  0.81739210  0.99769317    -0.10670
H1207       H  0.87424479  0.75845965  0.00280195     0.09010
H1208       H  0.78400453  0.74509245  0.99717629     0.06540
H1209       H  0.81794788  0.84417564  0.99727249     0.06390
C1210       C  0.84979506  0.80325709  0.50072937     0.03420
C1211       C  0.85394999  0.76786573  0.49873713    -0.12730
C1212       C  0.83063177  0.74599355  0.49558138     0.00920
C1213       C  0.80345618  0.75984540  0.49140329    -0.11250
C1214       C  0.79880659  0.79420971  0.49473926     0.03420
C1215       C  0.82197317  0.81604068  0.50055530    -0.10670
H1216       H  0.87509054  0.75745743  0.50105067     0.09010
H1217       H  0.78524074  0.74341545  0.48777583     0.06540
H1218       H  0.81840579  0.84278097  0.50260365     0.06390
Zn1219     Zn  0.82146102  0.58414630  0.95724322     1.49720
Zn1220     Zn  0.84632139  0.63978020  0.03527792     1.49360
Zn1221     Zn  0.79451610  0.65272070  0.95595033     1.49110
Zn1222     Zn  0.78378971  0.60664876  0.04949198     1.49480
O1223       O  0.81214027  0.62136826  0.00076092    -1.83830
O1224       O  0.85868199  0.56617524  0.97557998    -0.74460
O1225       O  0.84984268  0.69188029  0.01910055    -0.74280
O1226       O  0.80161647  0.64477780  0.88188828    -0.73800
O1227       O  0.88052320  0.60689379  0.01901929    -0.74480
O1228       O  0.82095013  0.59433401  0.88314280    -0.74080
O1229       O  0.81023107  0.69627327  0.97334325    -0.74660
O1230       O  0.74513437  0.62676006  0.03745395    -0.74050
O1231       O  0.83998522  0.63719898  0.11296334    -0.74810
O1232       O  0.75255603  0.65523319  0.96665275    -0.74200
O1233       O  0.79701760  0.61484292  0.12092484    -0.74660
O1234       O  0.77630785  0.55840863  0.04179270    -0.74570
O1235       O  0.79526195  0.54700934  0.96682160    -0.74360
C1236       C  0.88041086  0.57749047  0.99840899     0.77430
C1237       C  0.83092883  0.70980406  0.99671319     0.77920
C1238       C  0.81196926  0.61960430  0.85902125     0.76880
C1239       C  0.73608580  0.64460493  0.00101530     0.77250
C1240       C  0.81963732  0.62674505  0.14051588     0.78390
C1241       C  0.78026682  0.53881347  0.00442732     0.77440
Zn1242     Zn  0.82172829  0.58233844  0.54200956     1.49720
Zn1243     Zn  0.79708951  0.65244249  0.54551986     1.49360
Zn1244     Zn  0.84736564  0.63784099  0.46630169     1.49110
Zn1245     Zn  0.78389931  0.60719434  0.45077264     1.49480
O1246       O  0.81315832  0.62023493  0.49991838    -1.83830
O1247       O  0.82150023  0.59251292  0.61660523    -0.74460
O1248       O  0.81136064  0.69627186  0.52549705    -0.74280
O1249       O  0.88144968  0.60520510  0.48406416    -0.73800
O1250       O  0.80688918  0.64515919  0.61864496    -0.74480
O1251       O  0.85909059  0.56411254  0.52431559    -0.74080
O1252       O  0.85084762  0.69019866  0.48066307    -0.74660
O1253       O  0.79684186  0.61558510  0.37934755    -0.74050
O1254       O  0.75474313  0.65396107  0.53950551    -0.74810
O1255       O  0.84115528  0.63406827  0.38878336    -0.74200
O1256       O  0.74581276  0.62808054  0.46607554    -0.74660
O1257       O  0.77505954  0.55898770  0.45582098    -0.74570
O1258       O  0.79438984  0.54604159  0.53023077    -0.74360
C1259       C  0.81543292  0.61900563  0.64110754     0.77430
C1260       C  0.83191622  0.70888456  0.50136404     0.77920
C1261       C  0.88112882  0.57566292  0.50349482     0.76880
C1262       C  0.82027194  0.62512792  0.36057415     0.77250
C1263       C  0.73751440  0.64434140  0.50498472     0.78390
C1264       C  0.77828089  0.53917651  0.49284816     0.77440
C1265       C  0.65558170  0.64682449  0.00056796     0.03420
C1266       C  0.68336353  0.63403939  0.00129052    -0.12730
C1267       C  0.70652079  0.65599868  0.00026450     0.00920
C1268       C  0.70195255  0.69031503  0.99801096    -0.11250
C1269       C  0.67467143  0.70415029  0.99711502     0.03420
C1270       C  0.65134321  0.68222728  0.99936973    -0.10670
H1271       H  0.68694220  0.60730181  0.00300629     0.09010
H1272       H  0.72033570  0.70660970  0.99767945     0.06540
H1273       H  0.63011985  0.69248713  0.99871443     0.06390
C1274       C  0.65700416  0.64600984  0.50764809     0.03420
C1275       C  0.68485698  0.63338014  0.50790178    -0.12730
C1276       C  0.70794995  0.65551870  0.50815140     0.00920
C1277       C  0.70325977  0.68987055  0.50874917    -0.11250
C1278       C  0.67594306  0.70343160  0.50586414     0.03420
C1279       C  0.65269150  0.68137786  0.50623801    -0.10670
H1280       H  0.68854459  0.60663947  0.50690526     0.09010
H1281       H  0.72151605  0.70637790  0.50901893     0.06540
H1282       H  0.63147600  0.69157014  0.50384781     0.06390
Zn1283     Zn  0.72066465  0.84555494  0.04111585     1.49720
Zn1284     Zn  0.70983148  0.79757417  0.94987375     1.49360
Zn1285     Zn  0.65832366  0.81212319  0.02852377     1.49110
Zn1286     Zn  0.68176180  0.86641754  0.94912219     1.49480
O1287       O  0.69199957  0.82988191  0.99303741    -1.83830
O1288       O  0.75962414  0.82671438  0.02960874    -0.74460
O1289       O  0.69384205  0.75418490  0.96794418    -0.74280
O1290       O  0.66603425  0.81487196  0.10570235    -0.73800
O1291       O  0.75190104  0.79473468  0.96173925    -0.74480
O1292       O  0.70930495  0.83647207  0.11209118    -0.74080
O1293       O  0.65451158  0.75988629  0.01331933    -0.74660
O1294       O  0.64481346  0.88483551  0.96889928    -0.74050
O1295       O  0.70320144  0.80528929  0.87578665    -0.74810
O1296       O  0.62393104  0.84490108  0.01393464    -0.74200
O1297       O  0.68080961  0.85399968  0.87488497    -0.74660
O1298       O  0.70843426  0.90400957  0.95813013    -0.74570
O1299       O  0.72685810  0.89358291  0.03404404    -0.74360
C1300       C  0.76856087  0.80710946  0.99516651     0.77430
C1301       C  0.67326852  0.74134812  0.99180012     0.77920
C1302       C  0.68735088  0.82426374  0.13248643     0.76880
C1303       C  0.62364129  0.87400351  0.99310154     0.77250
C1304       C  0.69141429  0.82900048  0.85172695     0.78390
C1305       C  0.72360965  0.91253445  0.99602772     0.77440
Zn1306     Zn  0.65953027  0.81150952  0.53090234     1.49720
Zn1307     Zn  0.72183427  0.84560480  0.53935079     1.49360
Zn1308     Zn  0.70987387  0.79591131  0.45065146     1.49110
Zn1309     Zn  0.68080126  0.86460277  0.44886922     1.49480
O1310       O  0.69255949  0.82891019  0.49324330    -1.83830
O1311       O  0.66793333  0.81615825  0.60663360    -0.74460
O1312       O  0.76057238  0.82593555  0.52795341    -0.74280
O1313       O  0.69447168  0.75260268  0.47218023    -0.73800
O1314       O  0.71096378  0.83866351  0.61132303    -0.74480
O1315       O  0.65571178  0.75924623  0.51895671    -0.74080
O1316       O  0.75219993  0.79325319  0.46108615    -0.74660
O1317       O  0.67710980  0.85012838  0.37516586    -0.74050
O1318       O  0.72782566  0.89359614  0.52867377    -0.74810
O1319       O  0.70165702  0.80278603  0.37640563    -0.74200
O1320       O  0.70820315  0.90219453  0.45287098    -0.74660
O1321       O  0.64468507  0.88386368  0.47377789    -0.74570
O1322       O  0.62479721  0.84371146  0.51968166    -0.74360
C1323       C  0.68891380  0.82724517  0.63250709     0.77430
C1324       C  0.76917594  0.80577221  0.49393283     0.77920
C1325       C  0.67432658  0.74032898  0.49790729     0.76880
C1326       C  0.68796623  0.82510248  0.35227356     0.77370
C1327       C  0.72379593  0.91164169  0.48981665     0.78390
C1328       C  0.62424443  0.87315075  0.50021035     0.77440
C1329       C  0.90538528  0.55478799  0.00040464     0.03420
C1330       C  0.90134330  0.51932739  0.00001755    -0.12730
C1331       C  0.92478037  0.99753547  0.00139373     0.00920
C1332       C  0.95197571  0.51158521  0.00136367    -0.11250
C1333       C  0.95637804  0.54598097  0.00088913     0.03420
C1334       C  0.93310872  0.56779475  0.00055526    -0.10670
H1335       H  0.88018475  0.50887018  0.00015658     0.09010
H1336       H  0.97042998  0.49540654  0.00110035     0.06540
H1337       H  0.93655503  0.59458047  0.00017959     0.06390
C1338       C  0.90626644  0.55312380  0.50235772     0.03420
C1339       C  0.90239858  0.51765914  0.50281389    -0.12730
C1340       C  0.92591247  0.99600372  0.50179515     0.00920
C1341       C  0.95307163  0.51019564  0.50192888    -0.11250
C1342       C  0.95736789  0.54461745  0.50250793     0.03420
C1343       C  0.93397410  0.56629686  0.50258255    -0.10670
H1344       H  0.88129553  0.50704604  0.50246933     0.09010
H1345       H  0.97158843  0.49412096  0.50242750     0.06540
H1346       H  0.93731499  0.59310513  0.50298966     0.06390
Zn1347     Zn  0.90770956  0.88985093  0.96766446     1.49720
Zn1348     Zn  0.93263856  0.83499592  0.04442185     1.49360
Zn1349     Zn  0.96999012  0.85656615  0.95230127     1.49110
Zn1350     Zn  0.96019578  0.90340451  0.04583112     1.49480
O1351       O  0.94204780  0.87184182  0.00132260    -1.83830
O1352       O  0.87365421  0.85692714  0.98367623    -0.74460
O1353       O  0.96048233  0.79865987  0.03747297    -0.74280
O1354       O  0.95627729  0.86391135  0.88123770    -0.73800
O1355       O  0.89608154  0.81571823  0.02397807    -0.74480
O1356       O  0.91356916  0.88682717  0.89015881    -0.74080
O1357       O  0.97789667  0.80866431  0.96105648    -0.74660
O1358       O  0.00220330  0.90546809  0.03455607    -0.74050
O1359       O  0.93065181  0.84733255  0.11801967    -0.74810
O1360       O  0.50874534  0.87683291  0.96298512    -0.74200
O1361       O  0.95320739  0.89575457  0.11991281    -0.74660
O1362       O  0.94446392  0.94708189  0.02832581    -0.74570
O1363       O  0.90436950  0.94199735  0.98383753    -0.74360
C1364       C  0.87408898  0.82718659  0.00240697     0.77430
C1365       C  0.97569018  0.79032156  0.99997316     0.77920
C1366       C  0.93365318  0.87596909  0.86218431     0.76880
C1367       C  0.51827951  0.89465993  0.99946018     0.77250
C1368       C  0.94058263  0.87221782  0.14263175     0.78390
C1369       C  0.92354014  0.96024739  0.00530406     0.77440
Zn1370     Zn  0.93364713  0.83325951  0.46032962     1.49720
Zn1371     Zn  0.90851349  0.88871129  0.53606556     1.49360
Zn1372     Zn  0.97086086  0.85567377  0.55431951     1.49110
Zn1373     Zn  0.96188508  0.90139119  0.46033853     1.49480
O1374       O  0.94316013  0.87040457  0.50393494    -1.83830
O1375       O  0.89690785  0.81443868  0.47928700    -0.74460
O1376       O  0.91352677  0.88554513  0.61387337    -0.74280
O1377       O  0.97969937  0.80800979  0.54433367    -0.73800
O1378       O  0.87423228  0.85602696  0.51840023    -0.74480
O1379       O  0.96103498  0.79659406  0.46863975    -0.74080
O1380       O  0.95595520  0.86210079  0.62440869    -0.74660
O1381       O  0.00374603  0.90423488  0.47521063    -0.74050
O1382       O  0.90559317  0.94075047  0.51982339    -0.74810
O1383       O  0.50945803  0.87693317  0.54770697    -0.74200
O1384       O  0.94566241  0.94514962  0.47627376    -0.74660
O1385       O  0.95594684  0.89261857  0.38562903    -0.74570
O1386       O  0.93228636  0.84492680  0.38649370    -0.74360
C1387       C  0.87478603  0.82606667  0.49986657     0.77430
C1388       C  0.93307781  0.87383049  0.64254844     0.77920
C1389       C  0.97683080  0.78889508  0.50591029     0.76880
C1390       C  0.51936828  0.89437834  0.51183147     0.77250
C1391       C  0.92472631  0.95865565  0.49850629     0.78390
C1392       C  0.94332076  0.86892383  0.36225817     0.77440
C1393       C  0.59883749  0.89688590  0.99667806     0.03420
C1394       C  0.60304312  0.93231078  0.99742244    -0.12730
C1395       C  0.57972889  0.95422579  0.00050006     0.00920
C1396       C  0.55246158  0.94032455  0.00097152    -0.11250
C1397       C  0.54788411  0.90599588  0.99921045     0.03420
C1398       C  0.57104941  0.88405024  0.99730236    -0.10670
H1399       H  0.62424909  0.94262154  0.99705793     0.09010
H1400       H  0.53405174  0.95656078  0.00186781     0.06540
H1401       H  0.56746795  0.85728973  0.99594777     0.06390
C1402       C  0.59985580  0.89631806  0.50779399     0.03420
C1403       C  0.60411036  0.93165257  0.50571037    -0.12730
C1404       C  0.58086546  0.95369925  0.50740328     0.00920
C1405       C  0.55362229  0.94012150  0.51155110    -0.11250
C1406       C  0.54897881  0.90581104  0.51369605     0.03420
C1407       C  0.57212451  0.88374304  0.51303469    -0.10670
H1408       H  0.62519073  0.94180540  0.50111177     0.09010
H1409       H  0.53534864  0.95658112  0.51248170     0.06540
H1410       H  0.56843105  0.85699945  0.51337195     0.06390
Zn1411     Zn  0.57261962  0.61701684  0.04710380     1.49720
Zn1412     Zn  0.59616922  0.56171604  0.96790494     1.49360
Zn1413     Zn  0.54457881  0.54834333  0.04605608     1.49110
Zn1414     Zn  0.53380774  0.59561774  0.95523436     1.49480
O1415       O  0.56242548  0.58015393  0.00304454    -1.83830
O1416       O  0.60956526  0.63499493  0.02760346    -0.74460
O1417       O  0.60003416  0.50969369  0.98364814    -0.74280
O1418       O  0.55120078  0.55649040  0.11989083    -0.73800
O1419       O  0.63057175  0.59466439  0.98267292    -0.74480
O1420       O  0.57401950  0.60495527  0.12096306    -0.74080
O1421       O  0.56048928  0.50480723  0.02838017    -0.74660
O1422       O  0.99469532  0.57683133  0.96670044    -0.74050
O1423       O  0.58854851  0.56333827  0.89059777    -0.74810
O1424       O  0.50270652  0.54548461  0.03441827    -0.74200
O1425       O  0.54580284  0.58605342  0.88446105    -0.74660
O1426       O  0.52805042  0.64392734  0.96225972    -0.74570
O1427       O  0.54654177  0.65514155  0.03810122    -0.74360
C1428       C  0.63079290  0.62395300  0.00360453     0.77430
C1429       C  0.58113909  0.49152652  0.00506304     0.77920
C1430       C  0.56363822  0.57997986  0.14387507     0.76880
C1431       C  0.98592002  0.55751347  0.00125913     0.77250
C1432       C  0.56746431  0.57313908  0.86375740     0.78390
C1433       C  0.53222777  0.66377266  0.99930589     0.77440
Zn1434     Zn  0.57370698  0.61594351  0.46017119     1.49720
Zn1435     Zn  0.59757408  0.56129151  0.53829289     1.49360
Zn1436     Zn  0.53496341  0.59444803  0.55093715     1.49110
Zn1437     Zn  0.54566168  0.54711319  0.45891240     1.49480
O1438       O  0.56352642  0.57915190  0.50304513    -1.83830
O1439       O  0.61078802  0.63394236  0.48017903    -0.74460
O1440       O  0.59067435  0.56389681  0.61539374    -0.74280
O1441       O  0.52903776  0.64286445  0.54508660    -0.73800
O1442       O  0.63214645  0.59378412  0.52438007    -0.74480
O1443       O  0.54776036  0.65373800  0.46998649    -0.74080
O1444       O  0.54744904  0.58520842  0.62180130    -0.74660
O1445       O  0.50367738  0.54430489  0.46978256    -0.74050
O1446       O  0.60108915  0.50930842  0.52275147    -0.74810
O1447       O  0.99579728  0.57551669  0.53821796    -0.74200
O1448       O  0.56156649  0.50338296  0.47666132    -0.74660
O1449       O  0.55170523  0.55591957  0.38516660    -0.74570
O1450       O  0.57404754  0.60471261  0.38595564    -0.74360
C1451       C  0.63221343  0.62303197  0.50408930     0.77430
C1452       C  0.56986009  0.57370715  0.64242480     0.77920
C1453       C  0.53330178  0.66244221  0.50829994     0.76880
C1454       C  0.98693194  0.55626769  0.50291568     0.77250
C1455       C  0.58226647  0.49072433  0.50101207     0.78390
C1456       C  0.56323199  0.58007743  0.36204683     0.77440
C1457       C  0.56800095  0.57017455  0.80720356    -0.05830
C1458       C  0.59416334  0.56858012  0.78203903    -0.16960
C1459       C  0.59580852  0.56957656  0.72869865     0.11370
C1460       C  0.57065795  0.57164763  0.69908572    -0.05750
C1461       C  0.54457746  0.57210083  0.72446478    -0.16990
C1462       C  0.54287789  0.57094470  0.77732935     0.11400
S1463       S  0.63067193  0.56995600  0.70149953    -0.31960
S1464       S  0.00764380  0.56939564  0.80334665    -0.31960
H1465       H  0.51427012  0.54422418  0.83861764     0.29410
H1466       H  0.62497559  0.59744159  0.66991369     0.29400
H1467       H  0.61362282  0.56794883  0.80407083     0.20000
H1468       H  0.52496168  0.57284259  0.70286067     0.20000
C1469       C  0.56324139  0.57997713  0.30630373    -0.05830
C1470       C  0.58862817  0.58634780  0.28080477    -0.16960
C1471       C  0.58971066  0.58544282  0.22768506     0.11370
C1472       C  0.56474934  0.57874687  0.19955721    -0.05750
C1473       C  0.53943555  0.57229336  0.22514162    -0.16990
C1474       C  0.53829339  0.57339578  0.27805911     0.11400
S1475       S  0.62365032  0.59156357  0.19821881    -0.31960
S1476       S  0.00405178  0.56827618  0.30701050    -0.31960
H1477       H  0.50870144  0.59174072  0.34634481     0.29410
H1478       H  0.61855820  0.56981563  0.15684664     0.29400
H1479       H  0.60782418  0.59122536  0.30240464     0.20000
H1480       H  0.52013386  0.56770518  0.20366346     0.20000
C1481       C  0.52043692  0.69560971  0.50890463    -0.05830
C1482       C  0.51305084  0.70972048  0.46208003    -0.16960
C1483       C  0.99968230  0.74055956  0.45965885     0.11370
C1484       C  0.99219452  0.75711166  0.50528057    -0.05750
C1485       C  0.99993518  0.74313529  0.55215524    -0.16990
C1486       C  0.51455888  0.71304168  0.55446565     0.11400
S1487       S  0.99426894  0.75764642  0.39719254    -0.31960
S1488       S  0.52606469  0.69928030  0.61643221    -0.31960
H1489       H  0.55278441  0.68828217  0.59988067     0.29410
H1490       H  0.00365004  0.78991147  0.41096625     0.29400
H1491       H  0.51787105  0.69672683  0.42686994     0.20000
H1492       H  0.99486107  0.75589134  0.58742759     0.20000
C1493       C  0.93084730  0.87598432  0.80605098    -0.05830
C1494       C  0.93812818  0.84654307  0.77990103    -0.16960
C1495       C  0.93723505  0.84470486  0.72685806     0.11370
C1496       C  0.92955648  0.87322672  0.69843640    -0.05750
C1497       C  0.92129240  0.90243111  0.72443159    -0.16990
C1498       C  0.92218758  0.90423840  0.77785318     0.11400
S1499       S  0.94571191  0.80492815  0.69779568    -0.31960
S1500       S  0.91419805  0.94391940  0.80738839    -0.31960
H1501       H  0.93465760  0.94134602  0.84630890     0.29410
H1502       H  0.92705458  0.80841304  0.65620873     0.29400
H1503       H  0.94441168  0.82458882  0.80108804     0.20000
H1504       H  0.91565832  0.92451277  0.70302617     0.20000
C1505       C  0.93873298  0.87252157  0.19873681    -0.05830
C1506       C  0.93906398  0.84159954  0.22360737    -0.16960
C1507       C  0.94089726  0.83966159  0.27643914     0.11370
C1508       C  0.94160533  0.86935679  0.30604161    -0.05750
C1509       C  0.94064063  0.90035164  0.28125867    -0.16990
C1510       C  0.93888076  0.90228142  0.22821397     0.11400
S1511       S  0.94472721  0.79850771  0.30296001    -0.31960
S1512       S  0.93583407  0.94338112  0.20095396    -0.31960
H1513       H  0.91636994  0.93362903  0.16285278     0.29410
H1514       H  0.96690052  0.80831956  0.33575534     0.29400
H1515       H  0.93939296  0.81856774  0.20162252     0.20000
H1516       H  0.94073582  0.92331257  0.30340941     0.20000
C1517       C  0.51945915  0.69713750  0.99814437    -0.05830
C1518       C  0.51454127  0.71340044  0.04471141    -0.16960
C1519       C  0.00111291  0.74430037  0.04658247     0.11370
C1520       C  0.99114364  0.75868318  0.00096346    -0.05750
C1521       C  0.99646804  0.74274749  0.95438632    -0.16990
C1522       C  0.51107490  0.71265266  0.95228947     0.11400
S1523       S  0.99865531  0.76441987  0.10802689    -0.31960
S1524       S  0.51910272  0.69649036  0.88980187    -0.31960
H1525       H  0.54715338  0.68780900  0.90245939     0.29410
H1526       H  0.00620321  0.79626177  0.09010921     0.29400
H1527       H  0.52127977  0.70208824  0.08007799     0.20000
H1528       H  0.98944308  0.75397037  0.91911675     0.20000
C1529       C  0.68828471  0.82684109  0.68857266    -0.05830
C1530       C  0.71332147  0.81826134  0.71442910    -0.16960
C1531       C  0.71492879  0.81904350  0.76740746     0.11370
C1532       C  0.69074617  0.82788303  0.79577336    -0.05750
C1533       C  0.66562341  0.83635536  0.77010436    -0.16990
C1534       C  0.66418111  0.83618723  0.71689515     0.11400
S1535       S  0.74891927  0.81029751  0.79617983    -0.31960
S1536       S  0.63153622  0.84979859  0.68773622    -0.31960
H1537       H  0.64459159  0.86826582  0.64909956     0.29410
H1538       H  0.74686032  0.83519446  0.83408273     0.29400
H1539       H  0.73200727  0.81145082  0.69312207     0.20000
H1540       H  0.64711435  0.84351198  0.79162740     0.20000
C1541       C  0.68694906  0.82132946  0.18867002    -0.05830
C1542       C  0.66167200  0.82766242  0.21492898    -0.16960
C1543       C  0.66101978  0.82818543  0.26829639     0.11370
C1544       C  0.68621681  0.82255216  0.29626953    -0.05750
C1545       C  0.71120139  0.81520990  0.27007536    -0.16990
C1546       C  0.71185856  0.81426031  0.21702849     0.11400
S1547       S  0.62738684  0.83550553  0.29832852    -0.31960
S1548       S  0.74518590  0.80319209  0.18829681    -0.31960
H1549       H  0.73299702  0.78370712  0.14908347     0.29410
H1550       H  0.63271716  0.81493777  0.34048237     0.29400
H1551       H  0.64241243  0.83281946  0.19381132     0.20000
H1552       H  0.73057720  0.81053120  0.29118989     0.20000
C1553       C  0.76305516  0.50745146  0.49230251    -0.05830
C1554       C  0.75992047  0.99042912  0.44582510    -0.16960
C1555       C  0.74751881  0.95886031  0.44363632     0.11370
C1556       C  0.73731751  0.94446351  0.48878449    -0.05750
C1557       C  0.74002993  0.96182982  0.53505714    -0.16990
C1558       C  0.75243472  0.99327972  0.53727730     0.11400
S1559       S  0.74714218  0.93762754  0.38290429    -0.31960
S1560       S  0.75280985  0.51439784  0.59819875    -0.31960
H1561       H  0.74672398  0.54620232  0.57832408     0.29410
H1562       H  0.75481499  0.90629847  0.40277443     0.29400
H1563       H  0.76824251  0.00116843  0.41132686     0.20000
H1564       H  0.73182074  0.95114954  0.56969563     0.20000
C1565       C  0.81679154  0.61875441  0.69684973    -0.05830
C1566       C  0.80272623  0.59288488  0.72199594    -0.16960
C1567       C  0.80026857  0.59310670  0.77481756     0.11370
C1568       C  0.81289311  0.61922722  0.80337148    -0.05750
C1569       C  0.82714733  0.64500909  0.77837455    -0.16990
C1570       C  0.82948274  0.64486253  0.72539554     0.11400
S1571       S  0.77939695  0.56046083  0.80323790    -0.31960
S1572       S  0.84974208  0.67785210  0.69665714    -0.31960
H1573       H  0.85969021  0.65842232  0.65571237     0.29410
H1574       H  0.76830677  0.58042690  0.84259646     0.29400
H1575       H  0.79247691  0.57315474  0.70017111     0.20000
H1576       H  0.83705480  0.66490831  0.80031867     0.20000
C1577       C  0.82210234  0.62705850  0.19678192    -0.05830
C1578       C  0.81547008  0.59746825  0.22251145    -0.16960
C1579       C  0.81620572  0.59589108  0.27561978     0.11370
C1580       C  0.82313843  0.62474726  0.30449481    -0.05750
C1581       C  0.83052648  0.65420551  0.27894990    -0.16990
C1582       C  0.82970886  0.65579079  0.22550739     0.11400
S1583       S  0.80851111  0.55605687  0.30428279    -0.31960
S1584       S  0.83650342  0.69568692  0.19654931    -0.31960
H1585       H  0.81670027  0.69180721  0.15672046     0.29410
H1586       H  0.82666099  0.56039307  0.34648479     0.29400
H1587       H  0.80983830  0.57520083  0.20093599     0.20000
H1588       H  0.83555342  0.67655360  0.30075573     0.20000
C1589       C  0.73804278  0.94492683  0.99671632    -0.05830
C1590       C  0.74623677  0.95817375  0.04422857    -0.16960
C1591       C  0.76100237  0.98810685  0.04798439     0.11370
C1592       C  0.76653262  0.50619132  0.00338819    -0.05750
C1593       C  0.75829722  0.99314647  0.95590955    -0.16990
C1594       C  0.74475117  0.96241771  0.95189232     0.11400
S1595       S  0.77336522  0.00067208  0.11034860    -0.31960
S1596       S  0.73814429  0.94664762  0.88846656    -0.31960
H1597       H  0.74931856  0.91473083  0.89866640     0.29410
H1598       H  0.79999302  0.51165622  0.09356114     0.29400
H1599       H  0.74165988  0.94481131  0.07887567     0.20000
H1600       H  0.76274183  0.50681227  0.92145442     0.20000
loop_ 
_geom_bond_atom_site_label_1 
_geom_bond_atom_site_label_2 
_geom_bond_distance 
_geom_bond_site_symmetry_2 
_ccdc_geom_bond_type 
C1            C2   1.431   1_556  A
C1            C6   1.410       .  A
C1          C164   1.491   1_556  S
C2            C3   1.409   1_554  A
C2            H7   1.083       .  S
C3            C4   1.403       .  A
C3           C37   1.496       .  S
C4            C5   1.390       .  A
C4            H8   1.085       .  S
C5            C6   1.403       .  A
C5          C100   1.470       .  S
C6            H9   1.083       .  S
C10          C11   1.429       .  A
C10          C15   1.410       .  A
C10         C187   1.492       .  S
C11          C12   1.408       .  A
C11          H16   1.083       .  S
C12          C13   1.402       .  A
C12          C60   1.494       .  S
C13          C14   1.394       .  A
C13          H17   1.086       .  S
C14          C15   1.406       .  A
C14         C124   1.474       .  S
C15          H18   1.083       .  S
Zn19         O23   1.924   1_556  S
Zn19         O24   1.958       .  S
Zn19         O28   1.994       .  S
Zn19         O35   1.952       .  S
Zn20         O23   1.985       .  S
Zn20         O25   2.136       .  S
Zn20         O27   2.127       .  S
Zn20         O31   2.071       .  S
Zn21         O23   1.913   1_556  S
Zn21         O26   2.002       .  S
Zn21         O29   1.943       .  S
Zn21         O32   2.006       .  S
Zn22         O23   1.955       .  S
Zn22         O30   2.019       .  S
Zn22         O33   2.000       .  S
Zn22         O34   1.969       .  S
O24          C36   1.267       .  A
O25          C37   1.287   1_554  A
O26          C38   1.269       .  A
O27          C36   1.291   1_554  A
O28          C38   1.268       .  A
O29          C37   1.269       .  A
O30          C39   1.271       .  A
O31          C40   1.280       .  A
O32          C39   1.273   1_556  A
O33          C40   1.273       .  A
O34          C41   1.267       .  A
O35          C41   1.266   1_556  A
C36         C129   1.489   1_556  S
C38         C368   1.465       .  S
C39          C67   1.469       .  S
C40         C377   1.484       .  S
C41         C392   1.456       .  S
Zn42         O46   1.925       .  S
Zn42         O47   2.001       .  S
Zn42         O51   1.967       .  S
Zn42         O58   1.963       .  S
Zn43         O46   1.914       .  S
Zn43         O48   1.955       .  S
Zn43         O50   1.998       .  S
Zn43         O54   2.006       .  S
Zn44         O46   1.980       .  S
Zn44         O49   2.124       .  S
Zn44         O52   2.130       .  S
Zn44         O55   2.062       .  S
Zn45         O46   1.953       .  S
Zn45         O53   2.011       .  S
Zn45         O56   2.025       .  S
Zn45         O57   1.978       .  S
O47          C59   1.270       .  A
O48          C60   1.271       .  A
O49          C61   1.291       .  A
O50          C59   1.269       .  A
O51          C61   1.269       .  A
O52          C60   1.287       .  A
O53          C62   1.275       .  A
O54          C63   1.272       .  A
O55          C62   1.279       .  A
O56          C63   1.273       .  A
O57          C64   1.268       .  A
O58          C64   1.267       .  A
C59         C365   1.467       .  S
C61         C138   1.491       .  S
C62         C380   1.482       .  S
C63          C76   1.469       .  S
C64         C353   1.458       .  S
C65          C66   1.408       .  A
C65          C70   1.430   1_554  A
C65         C228   1.488       .  S
C66          C67   1.403       .  A
C66          H71   1.083       .  S
C67          C68   1.390   1_554  A
C68          C69   1.402       .  A
C68          H72   1.086       .  S
C69          C70   1.410       .  A
C69         C101   1.496       .  S
C70          H73   1.083       .  S
C74          C75   1.409       .  A
C74          C79   1.429       .  A
C74         C251   1.490       .  S
C75          C76   1.404       .  A
C75          H80   1.083       .  S
C76          C77   1.391       .  A
C77          C78   1.401       .  A
C77          H81   1.086       .  S
C78          C79   1.408       .  A
C78         C125   1.493       .  S
C79          H82   1.083       .  S
Zn83         O87   1.946   1_554  S
Zn83         O88   2.013       .  S
Zn83         O92   1.983       .  S
Zn83         O99   1.953       .  S
Zn84         O87   1.913       .  S
Zn84         O89   1.955       .  S
Zn84         O91   2.012       .  S
Zn84         O95   1.998       .  S
Zn85         O87   1.985   1_554  S
Zn85         O90   2.062       .  S
Zn85         O93   2.131       .  S
Zn85         O96   2.122       .  S
Zn86         O87   1.929       .  S
Zn86         O94   1.967       .  S
Zn86         O97   2.011       .  S
Zn86         O98   1.973       .  S
O88         C100   1.268   1_554  A
O89         C101   1.271       .  A
O90         C102   1.279       .  A
O91         C100   1.273       .  A
O92         C102   1.270       .  A
O93         C101   1.287   1_554  A
O94         C103   1.268       .  A
O95         C104   1.270       .  A
O96         C103   1.290   1_554  A
O97         C104   1.271       .  A
O98         C105   1.268       .  A
O99         C105   1.268   1_554  A
C102        C341   1.484       .  S
C103        C193   1.490       .  S
C104        C332   1.472       .  S
C105        C389   1.463       .  S
Zn106       O110   1.983       .  S
Zn106       O111   2.035       .  S
Zn106       O115   2.118       .  S
Zn106       O122   2.106       .  S
Zn107       O110   1.947       .  S
Zn107       O112   2.015       .  S
Zn107       O114   1.987       .  S
Zn107       O118   1.962       .  S
Zn108       O110   1.912       .  S
Zn108       O113   1.967       .  S
Zn108       O116   2.019       .  S
Zn108       O119   2.009       .  S
Zn109       O110   1.929       .  S
Zn109       O117   2.025       .  S
Zn109       O120   1.985       .  S
Zn109       O121   1.986       .  S
O111        C123   1.275       .  A
O112        C124   1.269       .  A
O113        C125   1.272       .  A
O114        C123   1.271       .  A
O115        C125   1.286       .  A
O116        C124   1.274       .  A
O117        C126   1.274       .  A
O118        C127   1.269       .  A
O119        C126   1.273       .  A
O120        C127   1.270       .  A
O121        C128   1.270       .  A
O122        C128   1.287       .  A
C123        C329   1.475       .  S
C126        C344   1.478       .  S
C127        C356   1.460       .  S
C128        C202   1.492       .  S
C129        C130   1.430       .  A
C129        C134   1.409       .  A
C130        C531   1.409   1_545  A
C130        H135   1.083       .  S
C131        C530   1.409       .  A
C131        C532   1.402       .  A
C131        C169   1.496       .  S
C132        C133   1.391       .  A
C132        C531   1.402   1_545  A
C132        H136   1.086   1_545  S
C133        C134   1.403       .  A
C133        C231   1.469       .  S
C134        H137   1.083       .  S
C138        C139   1.430       .  A
C138        C143   1.411       .  A
C139        C540   1.409   1_545  A
C139        H144   1.083       .  S
C140        C539   1.409       .  A
C140        C541   1.403       .  A
C140        C191   1.496       .  S
C141        C142   1.391       .  A
C141        C540   1.403   1_545  A
C141        H145   1.085   1_545  S
C142        C143   1.404       .  A
C142        C254   1.472       .  S
C143        H146   1.083       .  S
Zn147       O151   1.980   1_556  S
Zn147       O152   2.125       .  S
Zn147       O156   2.062       .  S
Zn147       O163   2.131       .  S
Zn148       O151   1.920       .  S
Zn148       O153   1.968       .  S
Zn148       O155   1.960       .  S
Zn148       O159   1.997       .  S
Zn149       O151   1.947   1_556  S
Zn149       O154   1.997       .  S
Zn149       O157   1.966       .  S
Zn149       O960   2.018       .  S
Zn150       O151   1.913       .  S
Zn150       O158   2.010       .  S
Zn150       O161   2.005       .  S
Zn150       O162   1.955       .  S
O152        C164   1.291   1_556  A
O153        C165   1.267   1_554  A
O154        C166   1.273       .  A
O155        C164   1.267       .  A
O156        C166   1.279       .  A
O157        C165   1.269       .  A
O158        C967   1.273   1_554  A
O159        C168   1.270       .  A
O160       Zn949   2.018   1_455  S
O160        C167   1.270       .  A
O161        C168   1.270       .  A
O162        C169   1.271       .  A
O163        C169   1.287   1_556  A
C165        C320   1.461   1_556  S
C166        C293   1.481       .  S
C167        C197   1.470       .  S
C167        O958   1.273   1_556  A
C168        C305   1.479       .  S
Zn170       O174   1.920       .  S
Zn170       O175   1.961       .  S
Zn170       O179   1.968       .  S
Zn170       O186   2.001       .  S
Zn171       O174   1.985       .  S
Zn171       O176   2.063       .  S
Zn171       O178   2.127       .  S
Zn171       O182   2.131       .  S
Zn172       O174   1.949       .  S
Zn172       O177   1.967       .  S
Zn172       O180   1.993       .  S
Zn172       O983   2.021       .  S
Zn173       O174   1.916       .  S
Zn173       O181   2.016       .  S
Zn173       O184   1.954       .  S
Zn173       O185   2.011       .  S
O175        C187   1.267       .  A
O176        C188   1.279       .  A
O177        C189   1.269       .  A
O178        C187   1.290       .  A
O179        C189   1.267       .  A
O180        C188   1.273       .  A
O181        C990   1.274       .  A
O182        C191   1.287       .  A
O183       Zn972   2.021   1_455  S
O183        C190   1.270       .  A
O184        C191   1.271       .  A
O185        C192   1.271       .  A
O186        C192   1.270       .  A
C188        C296   1.481       .  S
C189        C284   1.463       .  S
C190        C206   1.472       .  S
C190        O981   1.274       .  A
C192        C308   1.481       .  S
C193        C194   1.430       .  A
C193        C198   1.409       .  A
C194        C195   1.410   1_556  A
C194        H199   1.083       .  S
C195        C196   1.403       .  A
C195        C629   1.497       .  S
C196        C197   1.390   1_554  A
C196        H200   1.085       .  S
C197        C198   1.404       .  A
C198        H201   1.083       .  S
C202        C203   1.428       .  A
C202        C207   1.411       .  A
C203        C204   1.409       .  A
C203        H208   1.083       .  S
C204        C205   1.402       .  A
C204        C655   1.493       .  S
C205        C206   1.391       .  A
C205        H209   1.086       .  S
C206        C207   1.405       .  A
C207        H210   1.083       .  S
Zn211       O215   1.926       .  S
Zn211       O216   1.961       .  S
Zn211       O220   2.006       .  S
Zn211       O227   1.974       .  S
Zn212       O215   1.988   1_556  S
Zn212       O217   2.131       .  S
Zn212       O219   2.123       .  S
Zn212       O223   2.064       .  S
Zn213       O215   1.909       .  S
Zn213       O218   1.989       .  S
Zn213       O221   1.950       .  S
Zn213       O224   2.002       .  S
Zn214       O215   1.943   1_556  S
Zn214       O225   1.985       .  S
Zn214       O226   1.958       .  S
Zn214      O1022   2.020   1_455  S
O216        C228   1.267       .  A
O217        C229   1.287   1_546  A
O218        C230   1.269       .  A
O219        C228   1.290   1_556  A
O220        C230   1.271       .  A
O221        C229   1.270   1_545  A
O222      Zn1014   2.020       .  S
O222        C231   1.269   1_556  A
O223        C232   1.279       .  A
O224       C1031   1.271   1_455  A
O225        C232   1.271       .  A
O226        C233   1.266       .  A
O227        C233   1.270   1_554  A
C229        C595   1.497       .  S
C230        C272   1.466       .  S
C231       O1024   1.271       .  A
C232        C257   1.492       .  S
C233        C317   1.464       .  S
Zn234       O238   1.924       .  S
Zn234       O239   1.960       .  S
Zn234       O243   1.962       .  S
Zn234       O250   2.000       .  S
Zn235       O238   1.986       .  S
Zn235       O240   2.058       .  S
Zn235       O242   2.122       .  S
Zn235       O246   2.122       .  S
Zn236       O238   1.948       .  S
Zn236       O241   1.963       .  S
Zn236       O244   1.988       .  S
Zn236      O1047   2.023   1_455  S
Zn237       O238   1.913       .  S
Zn237       O245   2.009       .  S
Zn237       O248   1.961       .  S
Zn237       O249   1.997       .  S
O239        C251   1.267       .  A
O240        C252   1.278       .  A
O241        C253   1.267       .  A
O242        C251   1.289       .  A
O243        C253   1.268       .  A
O244        C252   1.273       .  A
O245       C1054   1.272   1_455  A
O246        C255   1.286   1_545  A
O247      Zn1036   2.023       .  S
O247        C254   1.270       .  A
O248        C255   1.272   1_545  A
O249        C256   1.270       .  A
O250        C256   1.269       .  A
C252        C260   1.493       .  S
C253        C281   1.459       .  S
C254       O1045   1.272       .  A
C255        C604   1.493       .  S
C256        C269   1.466       .  S
C257        C258   1.408       .  A
C257        C262   1.419       .  A
C258        C259   1.407       .  A
C258        H267   1.083       .  S
C259        C260   1.418       .  A
C259        S263   1.801       .  S
C260        C261   1.406       .  A
C261        C262   1.395       .  A
C261        H268   1.084       .  S
C262       S1064   1.806       .  S
S263        H266   1.407       .  S
S264       C1062   1.806       .  S
S264       H1065   1.408       .  S
H265       S1064   1.408       .  S
C269        C270   1.403       .  A
C269        C274   1.412       .  A
C270        C271   1.399       .  A
C270        H279   1.083       .  S
C271        C272   1.411       .  A
C271        S275   1.804       .  S
C272        C273   1.402       .  A
C273        C274   1.394       .  A
C273        H280   1.084       .  S
C274       S1076   1.805       .  S
S275        H278   1.407       .  S
S276       C1074   1.805       .  S
S276       H1077   1.407       .  S
H277       S1076   1.407       .  S
C281        C282   1.400       .  A
C281        C286   1.411       .  A
C282       C1083   1.387   1_455  A
C282        H291   1.084       .  S
C283        C284   1.413       .  A
C283       C1082   1.387       .  A
C283        S287   1.801       .  S
C284        C285   1.403       .  A
C285       C1086   1.389       .  A
C285        H292   1.084       .  S
C286       C1085   1.389   1_455  A
C286        S288   1.804       .  S
S287        H290   1.408       .  S
S288        H289   1.408       .  S
C293        C294   1.403       .  A
C293        C298   1.415       .  A
C294        C295   1.397       .  A
C294        H303   1.084       .  S
C295        C296   1.414       .  A
C295        S299   1.805       .  S
C296        C297   1.405       .  A
C297        C298   1.407       .  A
C297        H304   1.083       .  S
C298        S300   1.802       .  S
S299        H302   1.407       .  S
S300        H301   1.407       .  S
C305        C306   1.403       .  A
C305        C310   1.415       .  A
C306        C307   1.394       .  A
C306        H315   1.084       .  S
C307        C308   1.415       .  A
C307        S311   1.801       .  S
C308        C309   1.405       .  A
C309        C310   1.400       .  A
C309        H316   1.083       .  S
C310        S312   1.803       .  S
S311        H314   1.405       .  S
S312        H313   1.407       .  S
C317        C318   1.403   1_556  A
C317        C322   1.414       .  A
C318       C1119   1.389       .  A
C318        H327   1.083       .  S
C319        C320   1.412       .  A
C319       C1118   1.389       .  A
C319        S323   1.804       .  S
C320        C321   1.401   1_554  A
C321       C1122   1.388       .  A
C321        H328   1.083       .  S
C322       C1121   1.388   1_455  A
C322        S324   1.805       .  S
S323        H326   1.408       .  S
S324        H325   1.408       .  S
C329        C330   1.403       .  A
C329        C334   1.414       .  A
C330        C331   1.395       .  A
C330        H339   1.083       .  S
C331        C332   1.413       .  A
C331        S335   1.805       .  S
C332        C333   1.403       .  A
C333        C334   1.401       .  A
C333        H340   1.083       .  S
C334        S336   1.803       .  S
S335        H338   1.407       .  S
S336        H337   1.407       .  S
C341        C342   1.406       .  A
C341        C346   1.418       .  A
C342        C343   1.404       .  A
C342        H351   1.083       .  S
C343        C344   1.413       .  A
C343        S347   1.803       .  S
C344        C345   1.401       .  A
C345        C346   1.396       .  A
C345        H352   1.084       .  S
C346        S348   1.805       .  S
S347        H350   1.407       .  S
S348        H349   1.407       .  S
C353        C754   1.401   1_545  A
C353        C758   1.411   1_545  A
C354        C355   1.392       .  A
C354        C753   1.401       .  A
C354        H363   1.083       .  S
C355        C356   1.412       .  A
C355        S359   1.803       .  S
C356        C357   1.402       .  A
C357        C358   1.388       .  A
C357        H364   1.084       .  S
C358        C753   1.411       .  A
C358        S760   1.805       .  S
S359        H362   1.407       .  S
S360        C758   1.805   1_545  S
S360        H361   1.407       .  S
C365        C366   1.402       .  A
C365        C370   1.412       .  A
C366        C367   1.395       .  A
C366        H375   1.084       .  S
C367        C368   1.411       .  A
C367        S371   1.806       .  S
C368        C369   1.402       .  A
C369        C370   1.399       .  A
C369        H376   1.083       .  S
C370        S372   1.804       .  S
S371        H374   1.407       .  S
S372        H373   1.407       .  S
C377        C378   1.404       .  A
C377        C382   1.415       .  A
C378        C379   1.399       .  A
C378        H387   1.084       .  S
C379        C380   1.413       .  A
C379        S383   1.805       .  S
C380        C381   1.406       .  A
C381        C382   1.408       .  A
C381        H388   1.083       .  S
C382        S384   1.803       .  S
S383        H386   1.407       .  S
S384        H385   1.407       .  S
C389        C390   1.405   1_556  A
C389        C394   1.414       .  A
C390        C391   1.387       .  A
C390        H399   1.083       .  S
C391        C792   1.409       .  A
C391        S395   1.805       .  S
C392        C791   1.409   1_545  A
C392        C793   1.402   1_544  A
C393        C394   1.388       .  A
C393        C792   1.402   1_556  A
C393        H800   1.084       .  S
C394        S396   1.804       .  S
S395        H798   1.408       .  S
S396        H397   1.408       .  S
H398        S795   1.408       .  S
H400        C793   1.084   1_545  S
C401        C402   1.431   1_556  A
C401        C406   1.410       .  A
C401        C564   1.491   1_556  S
C402        C403   1.409   1_554  A
C402        H407   1.083       .  S
C403        C404   1.403       .  A
C403        C437   1.496       .  S
C404        C405   1.390       .  A
C404        H408   1.085       .  S
C405        C406   1.403       .  A
C405        C500   1.470       .  S
C406        H409   1.083       .  S
C410        C411   1.429       .  A
C410        C415   1.410       .  A
C410        C587   1.492       .  S
C411        C412   1.408       .  A
C411        H416   1.083       .  S
C412        C413   1.402       .  A
C412        C460   1.494       .  S
C413        C414   1.394       .  A
C413        H417   1.086       .  S
C414        C415   1.406       .  A
C414        C524   1.474       .  S
C415        H418   1.083       .  S
Zn419       O423   1.924   1_556  S
Zn419       O424   1.958       .  S
Zn419       O428   1.994       .  S
Zn419       O435   1.952       .  S
Zn420       O423   1.985       .  S
Zn420       O425   2.136       .  S
Zn420       O427   2.127       .  S
Zn420       O431   2.071       .  S
Zn421       O423   1.913   1_556  S
Zn421       O426   2.002       .  S
Zn421       O429   1.943       .  S
Zn421       O432   2.006       .  S
Zn422       O423   1.955       .  S
Zn422       O430   2.019       .  S
Zn422       O433   2.000       .  S
Zn422       O434   1.969       .  S
O424        C436   1.267       .  A
O425        C437   1.287   1_554  A
O426        C438   1.269       .  A
O427        C436   1.291   1_554  A
O428        C438   1.268       .  A
O429        C437   1.269       .  A
O430        C439   1.271       .  A
O431        C440   1.280       .  A
O432        C439   1.273   1_556  A
O433        C440   1.273       .  A
O434        C441   1.267       .  A
O435        C441   1.266   1_556  A
C436        C529   1.489   1_556  S
C438        C768   1.465       .  S
C439        C467   1.469       .  S
C440        C777   1.484       .  S
C441        C792   1.456       .  S
Zn442       O446   1.925       .  S
Zn442       O447   2.001       .  S
Zn442       O451   1.967       .  S
Zn442       O458   1.963       .  S
Zn443       O446   1.914       .  S
Zn443       O448   1.955       .  S
Zn443       O450   1.998       .  S
Zn443       O454   2.006       .  S
Zn444       O446   1.980       .  S
Zn444       O449   2.124       .  S
Zn444       O452   2.130       .  S
Zn444       O455   2.062       .  S
Zn445       O446   1.953       .  S
Zn445       O453   2.011       .  S
Zn445       O456   2.025       .  S
Zn445       O457   1.978       .  S
O447        C459   1.270       .  A
O448        C460   1.271       .  A
O449        C461   1.291       .  A
O450        C459   1.269       .  A
O451        C461   1.269       .  A
O452        C460   1.287       .  A
O453        C462   1.275       .  A
O454        C463   1.272       .  A
O455        C462   1.279       .  A
O456        C463   1.273       .  A
O457        C464   1.268       .  A
O458        C464   1.267       .  A
C459        C765   1.467       .  S
C461        C538   1.491       .  S
C462        C780   1.482       .  S
C463        C476   1.469       .  S
C464        C753   1.458       .  S
C465        C466   1.408       .  A
C465        C470   1.430   1_554  A
C465        C628   1.488       .  S
C466        C467   1.403       .  A
C466        H471   1.083       .  S
C467        C468   1.390   1_554  A
C468        C469   1.402       .  A
C468        H472   1.086       .  S
C469        C470   1.410       .  A
C469        C501   1.496       .  S
C470        H473   1.083       .  S
C474        C475   1.409       .  A
C474        C479   1.429       .  A
C474        C651   1.490       .  S
C475        C476   1.404       .  A
C475        H480   1.083       .  S
C476        C477   1.391       .  A
C477        C478   1.401       .  A
C477        H481   1.086       .  S
C478        C479   1.408       .  A
C478        C525   1.493       .  S
C479        H482   1.083       .  S
Zn483       O487   1.946   1_554  S
Zn483       O488   2.013       .  S
Zn483       O492   1.983       .  S
Zn483       O499   1.953       .  S
Zn484       O487   1.913       .  S
Zn484       O489   1.955       .  S
Zn484       O491   2.012       .  S
Zn484       O495   1.998       .  S
Zn485       O487   1.985   1_554  S
Zn485       O490   2.062       .  S
Zn485       O493   2.131       .  S
Zn485       O496   2.122       .  S
Zn486       O487   1.929       .  S
Zn486       O494   1.967       .  S
Zn486       O497   2.011       .  S
Zn486       O498   1.973       .  S
O488        C500   1.268   1_554  A
O489        C501   1.271       .  A
O490        C502   1.279       .  A
O491        C500   1.273       .  A
O492        C502   1.270       .  A
O493        C501   1.287   1_554  A
O494        C503   1.268       .  A
O495        C504   1.270       .  A
O496        C503   1.290   1_554  A
O497        C504   1.271       .  A
O498        C505   1.268       .  A
O499        C505   1.268   1_554  A
C502        C741   1.484       .  S
C503        C593   1.490       .  S
C504        C732   1.472       .  S
C505        C789   1.463       .  S
Zn506       O510   1.983       .  S
Zn506       O511   2.035       .  S
Zn506       O515   2.118       .  S
Zn506       O522   2.106       .  S
Zn507       O510   1.947       .  S
Zn507       O512   2.015       .  S
Zn507       O514   1.987       .  S
Zn507       O518   1.962       .  S
Zn508       O510   1.912       .  S
Zn508       O513   1.967       .  S
Zn508       O516   2.019       .  S
Zn508       O519   2.009       .  S
Zn509       O510   1.929       .  S
Zn509       O517   2.025       .  S
Zn509       O520   1.985       .  S
Zn509       O521   1.986       .  S
O511        C523   1.275       .  A
O512        C524   1.269       .  A
O513        C525   1.272       .  A
O514        C523   1.271       .  A
O515        C525   1.286       .  A
O516        C524   1.274       .  A
O517        C526   1.274       .  A
O518        C527   1.269       .  A
O519        C526   1.273       .  A
O520        C527   1.270       .  A
O521        C528   1.270       .  A
O522        C528   1.287       .  A
C523        C729   1.475       .  S
C526        C744   1.478       .  S
C527        C756   1.460       .  S
C528        C602   1.492       .  S
C529        C530   1.430       .  A
C529        C534   1.409       .  A
C530        H535   1.083       .  S
C531        C569   1.496       .  S
C532        C533   1.391       .  A
C532        H536   1.086       .  S
C533        C534   1.403       .  A
C533        C631   1.469       .  S
C534        H537   1.083       .  S
C538        C539   1.430       .  A
C538        C543   1.411       .  A
C539        H544   1.083       .  S
C540        C591   1.496       .  S
C541        C542   1.391       .  A
C541        H545   1.085       .  S
C542        C543   1.404       .  A
C542        C654   1.472       .  S
C543        H546   1.083       .  S
Zn547       O551   1.980   1_556  S
Zn547       O552   2.125       .  S
Zn547       O556   2.062       .  S
Zn547       O563   2.131       .  S
Zn548       O551   1.920       .  S
Zn548       O553   1.968       .  S
Zn548       O555   1.960       .  S
Zn548       O559   1.997       .  S
Zn549       O551   1.947   1_556  S
Zn549       O554   1.997       .  S
Zn549       O557   1.966       .  S
Zn549      O1360   2.018       .  S
Zn550       O551   1.913       .  S
Zn550       O558   2.010       .  S
Zn550       O561   2.005       .  S
Zn550       O562   1.955       .  S
O552        C564   1.291   1_556  A
O553        C565   1.267   1_554  A
O554        C566   1.273       .  A
O555        C564   1.267       .  A
O556        C566   1.279       .  A
O557        C565   1.269       .  A
O558       C1367   1.273   1_554  A
O559        C568   1.270       .  A
O560      Zn1349   2.018   1_455  S
O560        C567   1.270       .  A
O561        C568   1.270       .  A
O562        C569   1.271       .  A
O563        C569   1.287   1_556  A
C565        C720   1.461   1_556  S
C566        C693   1.481       .  S
C567        C597   1.470       .  S
C567       O1358   1.273   1_556  A
C568        C705   1.479       .  S
Zn570       O574   1.920       .  S
Zn570       O575   1.961       .  S
Zn570       O579   1.968       .  S
Zn570       O586   2.001       .  S
Zn571       O574   1.985       .  S
Zn571       O576   2.063       .  S
Zn571       O578   2.127       .  S
Zn571       O582   2.131       .  S
Zn572       O574   1.949       .  S
Zn572       O577   1.967       .  S
Zn572       O580   1.993       .  S
Zn572      O1383   2.021       .  S
Zn573       O574   1.916       .  S
Zn573       O581   2.016       .  S
Zn573       O584   1.954       .  S
Zn573       O585   2.011       .  S
O575        C587   1.267       .  A
O576        C588   1.279       .  A
O577        C589   1.269       .  A
O578        C587   1.290       .  A
O579        C589   1.267       .  A
O580        C588   1.273       .  A
O581       C1390   1.274       .  A
O582        C591   1.287       .  A
O583      Zn1372   2.021   1_455  S
O583        C590   1.270       .  A
O584        C591   1.271       .  A
O585        C592   1.271       .  A
O586        C592   1.270       .  A
C588        C696   1.481       .  S
C589        C684   1.463       .  S
C590        C606   1.472       .  S
C590       O1381   1.274       .  A
C592        C708   1.481       .  S
C593        C594   1.430       .  A
C593        C598   1.409       .  A
C594        C595   1.410   1_556  A
C594        H599   1.083       .  S
C595        C596   1.403       .  A
C596        C597   1.390   1_554  A
C596        H600   1.085       .  S
C597        C598   1.404       .  A
C598        H601   1.083       .  S
C602        C603   1.428       .  A
C602        C607   1.411       .  A
C603        C604   1.409       .  A
C603        H608   1.083       .  S
C604        C605   1.402       .  A
C605        C606   1.391       .  A
C605        H609   1.086       .  S
C606        C607   1.405       .  A
C607        H610   1.083       .  S
Zn611       O615   1.926       .  S
Zn611       O616   1.961       .  S
Zn611       O620   2.006       .  S
Zn611       O627   1.974       .  S
Zn612       O615   1.988   1_556  S
Zn612       O617   2.131       .  S
Zn612       O619   2.123       .  S
Zn612       O623   2.064       .  S
Zn613       O615   1.909       .  S
Zn613       O618   1.989       .  S
Zn613       O621   1.950       .  S
Zn613       O624   2.002       .  S
Zn614       O615   1.943   1_556  S
Zn614      O1422   2.020   1_455  S
Zn614       O625   1.985       .  S
Zn614       O626   1.958       .  S
O616        C628   1.267       .  A
O617        C629   1.287   1_556  A
O618        C630   1.269       .  A
O619        C628   1.290   1_556  A
O620        C630   1.271       .  A
O621        C629   1.270       .  A
O622      Zn1414   2.020       .  S
O622        C631   1.269   1_556  A
O623        C632   1.279       .  A
O624       C1431   1.271   1_455  A
O625        C632   1.271       .  A
O626        C633   1.266       .  A
O627        C633   1.270   1_554  A
C630        C672   1.466       .  S
C631       O1424   1.271       .  A
C632        C657   1.492       .  S
C633        C717   1.464       .  S
Zn634       O638   1.924       .  S
Zn634       O639   1.960       .  S
Zn634       O643   1.962       .  S
Zn634       O650   2.000       .  S
Zn635       O638   1.986       .  S
Zn635       O640   2.058       .  S
Zn635       O642   2.122       .  S
Zn635       O646   2.122       .  S
Zn636       O638   1.948       .  S
Zn636       O641   1.963       .  S
Zn636       O644   1.988       .  S
Zn636      O1447   2.023   1_455  S
Zn637       O638   1.913       .  S
Zn637       O645   2.009       .  S
Zn637       O648   1.961       .  S
Zn637       O649   1.997       .  S
O639        C651   1.267       .  A
O640        C652   1.278       .  A
O641        C653   1.267       .  A
O642        C651   1.289       .  A
O643        C653   1.268       .  A
O644        C652   1.273       .  A
O645       C1454   1.272   1_455  A
O646        C655   1.286       .  A
O647      Zn1436   2.023       .  S
O647        C654   1.270       .  A
O648        C655   1.272       .  A
O649        C656   1.270       .  A
O650        C656   1.269       .  A
C652        C660   1.493       .  S
C653        C681   1.459       .  S
C654       O1445   1.272       .  A
C656        C669   1.466       .  S
C657        C658   1.408       .  A
C657        C662   1.419       .  A
C658        C659   1.407       .  A
C658        H667   1.083       .  S
C659        C660   1.418       .  A
C659        S663   1.801       .  S
C660        C661   1.406       .  A
C661        C662   1.395       .  A
C661        H668   1.084       .  S
C662       S1464   1.806       .  S
S663        H666   1.407       .  S
S664       C1462   1.806       .  S
S664       H1465   1.408       .  S
H665       S1464   1.408       .  S
C669        C670   1.403       .  A
C669        C674   1.412       .  A
C670        C671   1.399       .  A
C670        H679   1.083       .  S
C671        C672   1.411       .  A
C671        S675   1.804       .  S
C672        C673   1.402       .  A
C673        C674   1.394       .  A
C673        H680   1.084       .  S
C674       S1476   1.805       .  S
S675        H678   1.407       .  S
S676       C1474   1.805       .  S
S676       H1477   1.407       .  S
H677       S1476   1.407       .  S
C681        C682   1.400       .  A
C681        C686   1.411       .  A
C682       C1483   1.387   1_455  A
C682        H691   1.084       .  S
C683       C1482   1.387       .  A
C683        C684   1.413       .  A
C683        S687   1.801       .  S
C684        C685   1.403       .  A
C685       C1486   1.389       .  A
C685        H692   1.084       .  S
C686       C1485   1.389   1_455  A
C686        S688   1.804       .  S
S687        H690   1.408       .  S
S688        H689   1.408       .  S
C693        C694   1.403       .  A
C693        C698   1.415       .  A
C694        C695   1.397       .  A
C694        H703   1.084       .  S
C695        C696   1.414       .  A
C695        S699   1.805       .  S
C696        C697   1.405       .  A
C697        C698   1.407       .  A
C697        H704   1.083       .  S
C698        S700   1.802       .  S
S699        H702   1.407       .  S
S700        H701   1.407       .  S
C705        C706   1.403       .  A
C705        C710   1.415       .  A
C706        C707   1.394       .  A
C706        H715   1.084       .  S
C707        C708   1.415       .  A
C707        S711   1.801       .  S
C708        C709   1.405       .  A
C709        C710   1.400       .  A
C709        H716   1.083       .  S
C710        S712   1.803       .  S
S711        H714   1.405       .  S
S712        H713   1.407       .  S
C717        C718   1.403   1_556  A
C717        C722   1.414       .  A
C718       C1519   1.389       .  A
C718        H727   1.083       .  S
C719       C1518   1.389       .  A
C719        C720   1.412       .  A
C719        S723   1.804       .  S
C720        C721   1.401   1_554  A
C721       C1522   1.388       .  A
C721        H728   1.083       .  S
C722       C1521   1.388   1_455  A
C722        S724   1.805       .  S
S723        H726   1.408       .  S
S724        H725   1.408       .  S
C729        C730   1.403       .  A
C729        C734   1.414       .  A
C730        C731   1.395       .  A
C730        H739   1.083       .  S
C731        C732   1.413       .  A
C731        S735   1.805       .  S
C732        C733   1.403       .  A
C733        C734   1.401       .  A
C733        H740   1.083       .  S
C734        S736   1.803       .  S
S735        H738   1.407       .  S
S736        H737   1.407       .  S
C741        C742   1.406       .  A
C741        C746   1.418       .  A
C742        C743   1.404       .  A
C742        H751   1.083       .  S
C743        C744   1.413       .  A
C743        S747   1.803       .  S
C744        C745   1.401       .  A
C745        C746   1.396       .  A
C745        H752   1.084       .  S
C746        S748   1.805       .  S
S747        H750   1.407       .  S
S748        H749   1.407       .  S
C754        C755   1.392       .  A
C754        H763   1.083   1_565  S
C755        C756   1.412       .  A
C755        S759   1.803       .  S
C756        C757   1.402       .  A
C757        C758   1.388       .  A
C757        H764   1.084       .  S
S759        H762   1.407       .  S
S760        H761   1.407       .  S
C765        C766   1.402       .  A
C765        C770   1.412       .  A
C766        C767   1.395       .  A
C766        H775   1.084       .  S
C767        C768   1.411       .  A
C767        S771   1.806       .  S
C768        C769   1.402       .  A
C769        C770   1.399       .  A
C769        H776   1.083       .  S
C770        S772   1.804       .  S
S771        H774   1.407       .  S
S772        H773   1.407       .  S
C777        C778   1.404       .  A
C777        C782   1.415       .  A
C778        C779   1.399       .  A
C778        H787   1.084       .  S
C779        C780   1.413       .  A
C779        S783   1.805       .  S
C780        C781   1.406       .  A
C781        C782   1.408       .  A
C781        H788   1.083       .  S
C782        S784   1.803       .  S
S783        H786   1.407       .  S
S784        H785   1.407       .  S
C789        C790   1.405   1_556  A
C789        C794   1.414       .  A
C790        C791   1.387       .  A
C790        H799   1.083       .  S
C791        S795   1.805   1_565  S
C793        C794   1.388       .  A
C794        S796   1.804       .  S
S796        H797   1.408       .  S
C801        C802   1.431   1_556  A
C801        C806   1.410       .  A
C801        C964   1.491   1_556  S
C802        C803   1.409   1_554  A
C802        H807   1.083       .  S
C803        C804   1.403       .  A
C803        C837   1.496       .  S
C804        C805   1.390       .  A
C804        H808   1.085       .  S
C805        C806   1.403       .  A
C805        C900   1.470       .  S
C806        H809   1.083       .  S
C810        C811   1.429       .  A
C810        C815   1.410       .  A
C810        C987   1.492       .  S
C811        C812   1.408       .  A
C811        H816   1.083       .  S
C812        C813   1.402       .  A
C812        C860   1.494       .  S
C813        C814   1.394       .  A
C813        H817   1.086       .  S
C814        C815   1.406       .  A
C814        C924   1.474       .  S
C815        H818   1.083       .  S
Zn819       O823   1.924   1_556  S
Zn819       O824   1.958       .  S
Zn819       O828   1.994       .  S
Zn819       O835   1.952       .  S
Zn820       O823   1.985       .  S
Zn820       O825   2.136       .  S
Zn820       O827   2.127       .  S
Zn820       O831   2.071       .  S
Zn821       O823   1.913   1_556  S
Zn821       O826   2.002       .  S
Zn821       O829   1.943       .  S
Zn821       O832   2.006       .  S
Zn822       O823   1.955       .  S
Zn822       O830   2.019       .  S
Zn822       O833   2.000       .  S
Zn822       O834   1.969       .  S
O824        C836   1.267       .  A
O825        C837   1.287   1_554  A
O826        C838   1.269       .  A
O827        C836   1.291   1_554  A
O828        C838   1.268       .  A
O829        C837   1.269       .  A
O830        C839   1.271       .  A
O831        C840   1.280       .  A
O832        C839   1.273   1_556  A
O833        C840   1.273       .  A
O834        C841   1.267       .  A
O835        C841   1.266   1_556  A
C836        C929   1.489   1_556  S
C838       C1168   1.465       .  S
C839        C867   1.469       .  S
C840       C1177   1.484       .  S
C841       C1192   1.456       .  S
Zn842       O846   1.925       .  S
Zn842       O847   2.001       .  S
Zn842       O851   1.967       .  S
Zn842       O858   1.963       .  S
Zn843       O846   1.914       .  S
Zn843       O848   1.955       .  S
Zn843       O850   1.998       .  S
Zn843       O854   2.006       .  S
Zn844       O846   1.980       .  S
Zn844       O849   2.124       .  S
Zn844       O852   2.130       .  S
Zn844       O855   2.062       .  S
Zn845       O846   1.953       .  S
Zn845       O853   2.011       .  S
Zn845       O856   2.025       .  S
Zn845       O857   1.978       .  S
O847        C859   1.270       .  A
O848        C860   1.271       .  A
O849        C861   1.291       .  A
O850        C859   1.269       .  A
O851        C861   1.269       .  A
O852        C860   1.287       .  A
O853        C862   1.275       .  A
O854        C863   1.272       .  A
O855        C862   1.279       .  A
O856        C863   1.273       .  A
O857        C864   1.268       .  A
O858        C864   1.267       .  A
C859       C1165   1.467       .  S
C861        C938   1.491       .  S
C862       C1180   1.482       .  S
C863        C876   1.469       .  S
C864       C1153   1.458       .  S
C865        C866   1.408       .  A
C865        C870   1.430   1_554  A
C865       C1028   1.488       .  S
C866        C867   1.403       .  A
C866        H871   1.083       .  S
C867        C868   1.390   1_554  A
C868        C869   1.402       .  A
C868        H872   1.086       .  S
C869        C870   1.410       .  A
C869        C901   1.496       .  S
C870        H873   1.083       .  S
C874        C875   1.409       .  A
C874        C879   1.429       .  A
C874       C1051   1.490       .  S
C875        C876   1.404       .  A
C875        H880   1.083       .  S
C876        C877   1.391       .  A
C877        C878   1.401       .  A
C877        H881   1.086       .  S
C878        C879   1.408       .  A
C878        C925   1.493       .  S
C879        H882   1.083       .  S
Zn883       O887   1.946   1_554  S
Zn883       O888   2.013       .  S
Zn883       O892   1.983       .  S
Zn883       O899   1.953       .  S
Zn884       O887   1.913       .  S
Zn884       O889   1.955       .  S
Zn884       O891   2.012       .  S
Zn884       O895   1.998       .  S
Zn885       O887   1.985   1_554  S
Zn885       O890   2.062       .  S
Zn885       O893   2.131       .  S
Zn885       O896   2.122       .  S
Zn886       O887   1.929       .  S
Zn886       O894   1.967       .  S
Zn886       O897   2.011       .  S
Zn886       O898   1.973       .  S
O888        C900   1.268   1_554  A
O889        C901   1.271       .  A
O890        C902   1.279       .  A
O891        C900   1.273       .  A
O892        C902   1.270       .  A
O893        C901   1.287   1_554  A
O894        C903   1.268       .  A
O895        C904   1.270       .  A
O896        C903   1.290   1_554  A
O897        C904   1.271       .  A
O898        C905   1.268       .  A
O899        C905   1.268   1_554  A
C902       C1141   1.484       .  S
C903        C993   1.490       .  S
C904       C1132   1.472       .  S
C905       C1189   1.463       .  S
Zn906       O910   1.983       .  S
Zn906       O911   2.035       .  S
Zn906       O915   2.118       .  S
Zn906       O922   2.106       .  S
Zn907       O910   1.947       .  S
Zn907       O912   2.015       .  S
Zn907       O914   1.987       .  S
Zn907       O918   1.962       .  S
Zn908       O910   1.912       .  S
Zn908       O913   1.967       .  S
Zn908       O916   2.019       .  S
Zn908       O919   2.009       .  S
Zn909       O910   1.929       .  S
Zn909       O917   2.025       .  S
Zn909       O920   1.985       .  S
Zn909       O921   1.986       .  S
O911        C923   1.275       .  A
O912        C924   1.269       .  A
O913        C925   1.272       .  A
O914        C923   1.271       .  A
O915        C925   1.286       .  A
O916        C924   1.274       .  A
O917        C926   1.274       .  A
O918        C927   1.269       .  A
O919        C926   1.273       .  A
O920        C927   1.270       .  A
O921        C928   1.270       .  A
O922        C928   1.287       .  A
C923       C1129   1.475       .  S
C926       C1144   1.478       .  S
C927       C1156   1.460       .  S
C928       C1002   1.492       .  S
C929        C930   1.430       .  A
C929        C934   1.409       .  A
C930       C1331   1.409   1_545  A
C930        H935   1.083       .  S
C931       C1330   1.409       .  A
C931       C1332   1.402       .  A
C931        C969   1.496       .  S
C932       C1331   1.402   1_545  A
C932        C933   1.391       .  A
C932        H936   1.086   1_545  S
C933        C934   1.403       .  A
C933       C1031   1.469       .  S
C934        H937   1.083       .  S
C938        C939   1.430       .  A
C938        C943   1.411       .  A
C939       C1340   1.409   1_545  A
C939        H944   1.083       .  S
C940       C1339   1.409       .  A
C940       C1341   1.403       .  A
C940        C991   1.496       .  S
C941       C1340   1.403   1_545  A
C941        C942   1.391       .  A
C941        H945   1.085   1_545  S
C942        C943   1.404       .  A
C942       C1054   1.472       .  S
C943        H946   1.083       .  S
Zn947       O951   1.980   1_556  S
Zn947       O952   2.125       .  S
Zn947       O956   2.062       .  S
Zn947       O963   2.131       .  S
Zn948       O951   1.920       .  S
Zn948       O953   1.968       .  S
Zn948       O955   1.960       .  S
Zn948       O959   1.997       .  S
Zn949       O951   1.947   1_556  S
Zn949       O954   1.997       .  S
Zn949       O957   1.966       .  S
Zn950       O951   1.913       .  S
Zn950       O958   2.010   1_655  S
Zn950       O961   2.005       .  S
Zn950       O962   1.955       .  S
O952        C964   1.291   1_556  A
O953        C965   1.267   1_554  A
O954        C966   1.273       .  A
O955        C964   1.267       .  A
O956        C966   1.279       .  A
O957        C965   1.269       .  A
O959        C968   1.270       .  A
O960        C967   1.270       .  A
O961        C968   1.270       .  A
O962        C969   1.271       .  A
O963        C969   1.287   1_556  A
C965       C1120   1.461   1_556  S
C966       C1093   1.481       .  S
C967        C997   1.470       .  S
C968       C1105   1.479       .  S
Zn970       O974   1.920       .  S
Zn970       O975   1.961       .  S
Zn970       O979   1.968       .  S
Zn970       O986   2.001       .  S
Zn971       O974   1.985       .  S
Zn971       O976   2.063       .  S
Zn971       O978   2.127       .  S
Zn971       O982   2.131       .  S
Zn972       O974   1.949       .  S
Zn972       O977   1.967       .  S
Zn972       O980   1.993       .  S
Zn973       O974   1.916       .  S
Zn973       O981   2.016   1_655  S
Zn973       O984   1.954       .  S
Zn973       O985   2.011       .  S
O975        C987   1.267       .  A
O976        C988   1.279       .  A
O977        C989   1.269       .  A
O978        C987   1.290       .  A
O979        C989   1.267       .  A
O980        C988   1.273       .  A
O982        C991   1.287       .  A
O983        C990   1.270       .  A
O984        C991   1.271       .  A
O985        C992   1.271       .  A
O986        C992   1.270       .  A
C988       C1096   1.481       .  S
C989       C1084   1.463       .  S
C990       C1006   1.472       .  S
C992       C1108   1.481       .  S
C993        C994   1.430       .  A
C993        C998   1.409       .  A
C994        C995   1.410   1_556  A
C994        H999   1.083       .  S
C995        C996   1.403       .  A
C995       C1429   1.497       .  S
C996        C997   1.390   1_554  A
C996       H1000   1.085       .  S
C997        C998   1.404       .  A
C998       H1001   1.083       .  S
C1002      C1003   1.428       .  A
C1002      C1007   1.411       .  A
C1003      C1004   1.409       .  A
C1003      H1008   1.083       .  S
C1004      C1005   1.402       .  A
C1004      C1455   1.493       .  S
C1005      C1006   1.391       .  A
C1005      H1009   1.086       .  S
C1006      C1007   1.405       .  A
C1007      H1010   1.083       .  S
Zn1011     O1015   1.926       .  S
Zn1011     O1016   1.961       .  S
Zn1011     O1020   2.006       .  S
Zn1011     O1027   1.974       .  S
Zn1012     O1015   1.988   1_556  S
Zn1012     O1017   2.131       .  S
Zn1012     O1019   2.123       .  S
Zn1012     O1023   2.064       .  S
Zn1013     O1015   1.909       .  S
Zn1013     O1018   1.989       .  S
Zn1013     O1021   1.950       .  S
Zn1013     O1024   2.002       .  S
Zn1014     O1015   1.943   1_556  S
Zn1014     O1025   1.985       .  S
Zn1014     O1026   1.958       .  S
O1016      C1028   1.267       .  A
O1017      C1029   1.287   1_546  A
O1018      C1030   1.269       .  A
O1019      C1028   1.290   1_556  A
O1020      C1030   1.271       .  A
O1021      C1029   1.270   1_545  A
O1022      C1031   1.269   1_556  A
O1023      C1032   1.279       .  A
O1025      C1032   1.271       .  A
O1026      C1033   1.266       .  A
O1027      C1033   1.270   1_554  A
C1029      C1395   1.497       .  S
C1030      C1072   1.466       .  S
C1032      C1057   1.492       .  S
C1033      C1117   1.464       .  S
Zn1034     O1038   1.924       .  S
Zn1034     O1039   1.960       .  S
Zn1034     O1043   1.962       .  S
Zn1034     O1050   2.000       .  S
Zn1035     O1038   1.986       .  S
Zn1035     O1040   2.058       .  S
Zn1035     O1042   2.122       .  S
Zn1035     O1046   2.122       .  S
Zn1036     O1038   1.948       .  S
Zn1036     O1041   1.963       .  S
Zn1036     O1044   1.988       .  S
Zn1037     O1038   1.913       .  S
Zn1037     O1045   2.009       .  S
Zn1037     O1048   1.961       .  S
Zn1037     O1049   1.997       .  S
O1039      C1051   1.267       .  A
O1040      C1052   1.278       .  A
O1041      C1053   1.267       .  A
O1042      C1051   1.289       .  A
O1043      C1053   1.268       .  A
O1044      C1052   1.273       .  A
O1046      C1055   1.286   1_545  A
O1047      C1054   1.270       .  A
O1048      C1055   1.272   1_545  A
O1049      C1056   1.270       .  A
O1050      C1056   1.269       .  A
C1052      C1060   1.493       .  S
C1053      C1081   1.459       .  S
C1055      C1404   1.493       .  S
C1056      C1069   1.466       .  S
C1057      C1058   1.408       .  A
C1057      C1062   1.419       .  A
C1058      C1059   1.407       .  A
C1058      H1067   1.083       .  S
C1059      C1060   1.418       .  A
C1059      S1063   1.801       .  S
C1060      C1061   1.406       .  A
C1061      C1062   1.395       .  A
C1061      H1068   1.084       .  S
S1063      H1066   1.407       .  S
C1069      C1070   1.403       .  A
C1069      C1074   1.412       .  A
C1070      C1071   1.399       .  A
C1070      H1079   1.083       .  S
C1071      C1072   1.411       .  A
C1071      S1075   1.804       .  S
C1072      C1073   1.402       .  A
C1073      C1074   1.394       .  A
C1073      H1080   1.084       .  S
S1075      H1078   1.407       .  S
C1081      C1082   1.400       .  A
C1081      C1086   1.411       .  A
C1082      H1091   1.084       .  S
C1083      C1084   1.413       .  A
C1083      S1087   1.801       .  S
C1084      C1085   1.403       .  A
C1085      H1092   1.084       .  S
C1086      S1088   1.804       .  S
S1087      H1090   1.408   1_655  S
S1088      H1089   1.408       .  S
C1093      C1094   1.403       .  A
C1093      C1098   1.415       .  A
C1094      C1095   1.397       .  A
C1094      H1103   1.084       .  S
C1095      C1096   1.414       .  A
C1095      S1099   1.805       .  S
C1096      C1097   1.405       .  A
C1097      C1098   1.407       .  A
C1097      H1104   1.083       .  S
C1098      S1100   1.802       .  S
S1099      H1102   1.407       .  S
S1100      H1101   1.407       .  S
C1105      C1106   1.403       .  A
C1105      C1110   1.415       .  A
C1106      C1107   1.394       .  A
C1106      H1115   1.084       .  S
C1107      C1108   1.415       .  A
C1107      S1111   1.801       .  S
C1108      C1109   1.405       .  A
C1109      C1110   1.400       .  A
C1109      H1116   1.083       .  S
C1110      S1112   1.803       .  S
S1111      H1114   1.405       .  S
S1112      H1113   1.407       .  S
C1117      C1118   1.403   1_556  A
C1117      C1122   1.414       .  A
C1118      H1127   1.083       .  S
C1119      C1120   1.412   1_455  A
C1119      S1123   1.804   1_455  S
C1120      C1121   1.401   1_554  A
C1121      H1128   1.083       .  S
C1122      S1124   1.805       .  S
S1123      H1126   1.408   1_655  S
S1124      H1125   1.408       .  S
C1129      C1130   1.403       .  A
C1129      C1134   1.414       .  A
C1130      C1131   1.395       .  A
C1130      H1139   1.083       .  S
C1131      C1132   1.413       .  A
C1131      S1135   1.805       .  S
C1132      C1133   1.403       .  A
C1133      C1134   1.401       .  A
C1133      H1140   1.083       .  S
C1134      S1136   1.803       .  S
S1135      H1138   1.407       .  S
S1136      H1137   1.407       .  S
C1141      C1142   1.406       .  A
C1141      C1146   1.418       .  A
C1142      C1143   1.404       .  A
C1142      H1151   1.083       .  S
C1143      C1144   1.413       .  A
C1143      S1147   1.803       .  S
C1144      C1145   1.401       .  A
C1145      C1146   1.396       .  A
C1145      H1152   1.084       .  S
C1146      S1148   1.805       .  S
S1147      H1150   1.407       .  S
S1148      H1149   1.407       .  S
C1153      C1554   1.401   1_545  A
C1153      C1558   1.411   1_545  A
C1154      C1553   1.401       .  A
C1154      C1155   1.392       .  A
C1154      H1163   1.083       .  S
C1155      C1156   1.412       .  A
C1155      S1159   1.803       .  S
C1156      C1157   1.402       .  A
C1157      C1158   1.388       .  A
C1157      H1164   1.084       .  S
C1158      C1553   1.411       .  A
C1158      S1560   1.805       .  S
S1159      H1162   1.407       .  S
S1160      C1558   1.805   1_545  S
S1160      H1161   1.407       .  S
C1165      C1166   1.402       .  A
C1165      C1170   1.412       .  A
C1166      C1167   1.395       .  A
C1166      H1175   1.084       .  S
C1167      C1168   1.411       .  A
C1167      S1171   1.806       .  S
C1168      C1169   1.402       .  A
C1169      C1170   1.399       .  A
C1169      H1176   1.083       .  S
C1170      S1172   1.804       .  S
S1171      H1174   1.407       .  S
S1172      H1173   1.407       .  S
C1177      C1178   1.404       .  A
C1177      C1182   1.415       .  A
C1178      C1179   1.399       .  A
C1178      H1187   1.084       .  S
C1179      C1180   1.413       .  A
C1179      S1183   1.805       .  S
C1180      C1181   1.406       .  A
C1181      C1182   1.408       .  A
C1181      H1188   1.083       .  S
C1182      S1184   1.803       .  S
S1183      H1186   1.407       .  S
S1184      H1185   1.407       .  S
C1189      C1190   1.405   1_556  A
C1189      C1194   1.414       .  A
C1190      C1191   1.387       .  A
C1190      H1199   1.083       .  S
C1191      C1592   1.409       .  A
C1191      S1195   1.805       .  S
C1192      C1591   1.409   1_545  A
C1192      C1593   1.402   1_544  A
C1193      C1592   1.402   1_556  A
C1193      C1194   1.388       .  A
C1193      H1600   1.084       .  S
C1194      S1196   1.804       .  S
S1195      H1598   1.408       .  S
S1196      H1197   1.408       .  S
H1198      S1595   1.408       .  S
H1200      C1593   1.084   1_545  S
C1201      C1202   1.431   1_556  A
C1201      C1206   1.410       .  A
C1201      C1364   1.491   1_556  S
C1202      C1203   1.409   1_554  A
C1202      H1207   1.083       .  S
C1203      C1204   1.403       .  A
C1203      C1237   1.496       .  S
C1204      C1205   1.390       .  A
C1204      H1208   1.085       .  S
C1205      C1206   1.403       .  A
C1205      C1300   1.470       .  S
C1206      H1209   1.083       .  S
C1210      C1211   1.429       .  A
C1210      C1215   1.410       .  A
C1210      C1387   1.492       .  S
C1211      C1212   1.408       .  A
C1211      H1216   1.083       .  S
C1212      C1213   1.402       .  A
C1212      C1260   1.494       .  S
C1213      C1214   1.394       .  A
C1213      H1217   1.086       .  S
C1214      C1215   1.406       .  A
C1214      C1324   1.474       .  S
C1215      H1218   1.083       .  S
Zn1219     O1223   1.924   1_556  S
Zn1219     O1224   1.958       .  S
Zn1219     O1228   1.994       .  S
Zn1219     O1235   1.952       .  S
Zn1220     O1223   1.985       .  S
Zn1220     O1225   2.136       .  S
Zn1220     O1227   2.127       .  S
Zn1220     O1231   2.071       .  S
Zn1221     O1223   1.913   1_556  S
Zn1221     O1226   2.002       .  S
Zn1221     O1229   1.943       .  S
Zn1221     O1232   2.006       .  S
Zn1222     O1223   1.955       .  S
Zn1222     O1230   2.019       .  S
Zn1222     O1233   2.000       .  S
Zn1222     O1234   1.969       .  S
O1224      C1236   1.267       .  A
O1225      C1237   1.287   1_554  A
O1226      C1238   1.269       .  A
O1227      C1236   1.291   1_554  A
O1228      C1238   1.268       .  A
O1229      C1237   1.269       .  A
O1230      C1239   1.271       .  A
O1231      C1240   1.280       .  A
O1232      C1239   1.273   1_556  A
O1233      C1240   1.273       .  A
O1234      C1241   1.267       .  A
O1235      C1241   1.266   1_556  A
C1236      C1329   1.489   1_556  S
C1238      C1568   1.465       .  S
C1239      C1267   1.469       .  S
C1240      C1577   1.484       .  S
C1241      C1592   1.456       .  S
Zn1242     O1246   1.925       .  S
Zn1242     O1247   2.001       .  S
Zn1242     O1251   1.967       .  S
Zn1242     O1258   1.963       .  S
Zn1243     O1246   1.914       .  S
Zn1243     O1248   1.955       .  S
Zn1243     O1250   1.998       .  S
Zn1243     O1254   2.006       .  S
Zn1244     O1246   1.980       .  S
Zn1244     O1249   2.124       .  S
Zn1244     O1252   2.130       .  S
Zn1244     O1255   2.062       .  S
Zn1245     O1246   1.953       .  S
Zn1245     O1253   2.011       .  S
Zn1245     O1256   2.025       .  S
Zn1245     O1257   1.978       .  S
O1247      C1259   1.270       .  A
O1248      C1260   1.271       .  A
O1249      C1261   1.291       .  A
O1250      C1259   1.269       .  A
O1251      C1261   1.269       .  A
O1252      C1260   1.287       .  A
O1253      C1262   1.275       .  A
O1254      C1263   1.272       .  A
O1255      C1262   1.279       .  A
O1256      C1263   1.273       .  A
O1257      C1264   1.268       .  A
O1258      C1264   1.267       .  A
C1259      C1565   1.467       .  S
C1261      C1338   1.491       .  S
C1262      C1580   1.482       .  S
C1263      C1276   1.469       .  S
C1264      C1553   1.458       .  S
C1265      C1266   1.408       .  A
C1265      C1270   1.430   1_554  A
C1265      C1428   1.488       .  S
C1266      C1267   1.403       .  A
C1266      H1271   1.083       .  S
C1267      C1268   1.390   1_554  A
C1268      C1269   1.402       .  A
C1268      H1272   1.086       .  S
C1269      C1270   1.410       .  A
C1269      C1301   1.496       .  S
C1270      H1273   1.083       .  S
C1274      C1275   1.409       .  A
C1274      C1279   1.429       .  A
C1274      C1451   1.490       .  S
C1275      C1276   1.404       .  A
C1275      H1280   1.083       .  S
C1276      C1277   1.391       .  A
C1277      C1278   1.401       .  A
C1277      H1281   1.086       .  S
C1278      C1279   1.408       .  A
C1278      C1325   1.493       .  S
C1279      H1282   1.083       .  S
Zn1283     O1287   1.946   1_554  S
Zn1283     O1288   2.013       .  S
Zn1283     O1292   1.983       .  S
Zn1283     O1299   1.953       .  S
Zn1284     O1287   1.913       .  S
Zn1284     O1289   1.955       .  S
Zn1284     O1291   2.012       .  S
Zn1284     O1295   1.998       .  S
Zn1285     O1287   1.985   1_554  S
Zn1285     O1290   2.062       .  S
Zn1285     O1293   2.131       .  S
Zn1285     O1296   2.122       .  S
Zn1286     O1287   1.929       .  S
Zn1286     O1294   1.967       .  S
Zn1286     O1297   2.011       .  S
Zn1286     O1298   1.973       .  S
O1288      C1300   1.268   1_554  A
O1289      C1301   1.271       .  A
O1290      C1302   1.279       .  A
O1291      C1300   1.273       .  A
O1292      C1302   1.270       .  A
O1293      C1301   1.287   1_554  A
O1294      C1303   1.268       .  A
O1295      C1304   1.270       .  A
O1296      C1303   1.290   1_554  A
O1297      C1304   1.271       .  A
O1298      C1305   1.268       .  A
O1299      C1305   1.268   1_554  A
C1302      C1541   1.484       .  S
C1303      C1393   1.490       .  S
C1304      C1532   1.472       .  S
C1305      C1589   1.463       .  S
Zn1306     O1310   1.983       .  S
Zn1306     O1311   2.035       .  S
Zn1306     O1315   2.118       .  S
Zn1306     O1322   2.106       .  S
Zn1307     O1310   1.947       .  S
Zn1307     O1312   2.015       .  S
Zn1307     O1314   1.987       .  S
Zn1307     O1318   1.962       .  S
Zn1308     O1310   1.912       .  S
Zn1308     O1313   1.967       .  S
Zn1308     O1316   2.019       .  S
Zn1308     O1319   2.009       .  S
Zn1309     O1310   1.929       .  S
Zn1309     O1317   2.025       .  S
Zn1309     O1320   1.985       .  S
Zn1309     O1321   1.986       .  S
O1311      C1323   1.275       .  A
O1312      C1324   1.269       .  A
O1313      C1325   1.272       .  A
O1314      C1323   1.271       .  A
O1315      C1325   1.286       .  A
O1316      C1324   1.274       .  A
O1317      C1326   1.274       .  A
O1318      C1327   1.269       .  A
O1319      C1326   1.273       .  A
O1320      C1327   1.270       .  A
O1321      C1328   1.270       .  A
O1322      C1328   1.287       .  A
C1323      C1529   1.475       .  S
C1326      C1544   1.478       .  S
C1327      C1556   1.460       .  S
C1328      C1402   1.492       .  S
C1329      C1330   1.430       .  A
C1329      C1334   1.409       .  A
C1330      H1335   1.083       .  S
C1331      C1369   1.496       .  S
C1332      C1333   1.391       .  A
C1332      H1336   1.086       .  S
C1333      C1334   1.403       .  A
C1333      C1431   1.469       .  S
C1334      H1337   1.083       .  S
C1338      C1339   1.430       .  A
C1338      C1343   1.411       .  A
C1339      H1344   1.083       .  S
C1340      C1391   1.496       .  S
C1341      C1342   1.391       .  A
C1341      H1345   1.085       .  S
C1342      C1343   1.404       .  A
C1342      C1454   1.472       .  S
C1343      H1346   1.083       .  S
Zn1347     O1351   1.980   1_556  S
Zn1347     O1352   2.125       .  S
Zn1347     O1356   2.062       .  S
Zn1347     O1363   2.131       .  S
Zn1348     O1351   1.920       .  S
Zn1348     O1353   1.968       .  S
Zn1348     O1355   1.960       .  S
Zn1348     O1359   1.997       .  S
Zn1349     O1351   1.947   1_556  S
Zn1349     O1354   1.997       .  S
Zn1349     O1357   1.966       .  S
Zn1350     O1351   1.913       .  S
Zn1350     O1358   2.010   1_655  S
Zn1350     O1361   2.005       .  S
Zn1350     O1362   1.955       .  S
O1352      C1364   1.291   1_556  A
O1353      C1365   1.267   1_554  A
O1354      C1366   1.273       .  A
O1355      C1364   1.267       .  A
O1356      C1366   1.279       .  A
O1357      C1365   1.269       .  A
O1359      C1368   1.270       .  A
O1360      C1367   1.270       .  A
O1361      C1368   1.270       .  A
O1362      C1369   1.271       .  A
O1363      C1369   1.287   1_556  A
C1365      C1520   1.461   1_556  S
C1366      C1493   1.481       .  S
C1367      C1397   1.470       .  S
C1368      C1505   1.479       .  S
Zn1370     O1374   1.920       .  S
Zn1370     O1375   1.961       .  S
Zn1370     O1379   1.968       .  S
Zn1370     O1386   2.001       .  S
Zn1371     O1374   1.985       .  S
Zn1371     O1376   2.063       .  S
Zn1371     O1378   2.127       .  S
Zn1371     O1382   2.131       .  S
Zn1372     O1374   1.949       .  S
Zn1372     O1377   1.967       .  S
Zn1372     O1380   1.993       .  S
Zn1373     O1374   1.916       .  S
Zn1373     O1381   2.016   1_655  S
Zn1373     O1384   1.954       .  S
Zn1373     O1385   2.011       .  S
O1375      C1387   1.267       .  A
O1376      C1388   1.279       .  A
O1377      C1389   1.269       .  A
O1378      C1387   1.290       .  A
O1379      C1389   1.267       .  A
O1380      C1388   1.273       .  A
O1382      C1391   1.287       .  A
O1383      C1390   1.270       .  A
O1384      C1391   1.271       .  A
O1385      C1392   1.271       .  A
O1386      C1392   1.270       .  A
C1388      C1496   1.481       .  S
C1389      C1484   1.463       .  S
C1390      C1406   1.472       .  S
C1392      C1508   1.481       .  S
C1393      C1394   1.430       .  A
C1393      C1398   1.409       .  A
C1394      C1395   1.410   1_556  A
C1394      H1399   1.083       .  S
C1395      C1396   1.403       .  A
C1396      C1397   1.390   1_554  A
C1396      H1400   1.085       .  S
C1397      C1398   1.404       .  A
C1398      H1401   1.083       .  S
C1402      C1403   1.428       .  A
C1402      C1407   1.411       .  A
C1403      C1404   1.409       .  A
C1403      H1408   1.083       .  S
C1404      C1405   1.402       .  A
C1405      C1406   1.391       .  A
C1405      H1409   1.086       .  S
C1406      C1407   1.405       .  A
C1407      H1410   1.083       .  S
Zn1411     O1415   1.926       .  S
Zn1411     O1416   1.961       .  S
Zn1411     O1420   2.006       .  S
Zn1411     O1427   1.974       .  S
Zn1412     O1415   1.988   1_556  S
Zn1412     O1417   2.131       .  S
Zn1412     O1419   2.123       .  S
Zn1412     O1423   2.064       .  S
Zn1413     O1415   1.909       .  S
Zn1413     O1418   1.989       .  S
Zn1413     O1421   1.950       .  S
Zn1413     O1424   2.002       .  S
Zn1414     O1415   1.943   1_556  S
Zn1414     O1425   1.985       .  S
Zn1414     O1426   1.958       .  S
O1416      C1428   1.267       .  A
O1417      C1429   1.287   1_556  A
O1418      C1430   1.269       .  A
O1419      C1428   1.290   1_556  A
O1420      C1430   1.271       .  A
O1421      C1429   1.270       .  A
O1422      C1431   1.269   1_556  A
O1423      C1432   1.279       .  A
O1425      C1432   1.271       .  A
O1426      C1433   1.266       .  A
O1427      C1433   1.270   1_554  A
C1430      C1472   1.466       .  S
C1432      C1457   1.492       .  S
C1433      C1517   1.464       .  S
Zn1434     O1438   1.924       .  S
Zn1434     O1439   1.960       .  S
Zn1434     O1443   1.962       .  S
Zn1434     O1450   2.000       .  S
Zn1435     O1438   1.986       .  S
Zn1435     O1440   2.058       .  S
Zn1435     O1442   2.122       .  S
Zn1435     O1446   2.122       .  S
Zn1436     O1438   1.948       .  S
Zn1436     O1441   1.963       .  S
Zn1436     O1444   1.988       .  S
Zn1437     O1438   1.913       .  S
Zn1437     O1445   2.009       .  S
Zn1437     O1448   1.961       .  S
Zn1437     O1449   1.997       .  S
O1439      C1451   1.267       .  A
O1440      C1452   1.278       .  A
O1441      C1453   1.267       .  A
O1442      C1451   1.289       .  A
O1443      C1453   1.268       .  A
O1444      C1452   1.273       .  A
O1446      C1455   1.286       .  A
O1447      C1454   1.270       .  A
O1448      C1455   1.272       .  A
O1449      C1456   1.270       .  A
O1450      C1456   1.269       .  A
C1452      C1460   1.493       .  S
C1453      C1481   1.459       .  S
C1456      C1469   1.466       .  S
C1457      C1458   1.408       .  A
C1457      C1462   1.419       .  A
C1458      C1459   1.407       .  A
C1458      H1467   1.083       .  S
C1459      C1460   1.418       .  A
C1459      S1463   1.801       .  S
C1460      C1461   1.406       .  A
C1461      C1462   1.395       .  A
C1461      H1468   1.084       .  S
S1463      H1466   1.407       .  S
C1469      C1470   1.403       .  A
C1469      C1474   1.412       .  A
C1470      C1471   1.399       .  A
C1470      H1479   1.083       .  S
C1471      C1472   1.411       .  A
C1471      S1475   1.804       .  S
C1472      C1473   1.402       .  A
C1473      C1474   1.394       .  A
C1473      H1480   1.084       .  S
S1475      H1478   1.407       .  S
C1481      C1482   1.400       .  A
C1481      C1486   1.411       .  A
C1482      H1491   1.084       .  S
C1483      C1484   1.413       .  A
C1483      S1487   1.801       .  S
C1484      C1485   1.403       .  A
C1485      H1492   1.084       .  S
C1486      S1488   1.804       .  S
S1487      H1490   1.408   1_655  S
S1488      H1489   1.408       .  S
C1493      C1494   1.403       .  A
C1493      C1498   1.415       .  A
C1494      C1495   1.397       .  A
C1494      H1503   1.084       .  S
C1495      C1496   1.414       .  A
C1495      S1499   1.805       .  S
C1496      C1497   1.405       .  A
C1497      C1498   1.407       .  A
C1497      H1504   1.083       .  S
C1498      S1500   1.802       .  S
S1499      H1502   1.407       .  S
S1500      H1501   1.407       .  S
C1505      C1506   1.403       .  A
C1505      C1510   1.415       .  A
C1506      C1507   1.394       .  A
C1506      H1515   1.084       .  S
C1507      C1508   1.415       .  A
C1507      S1511   1.801       .  S
C1508      C1509   1.405       .  A
C1509      C1510   1.400       .  A
C1509      H1516   1.083       .  S
C1510      S1512   1.803       .  S
S1511      H1514   1.405       .  S
S1512      H1513   1.407       .  S
C1517      C1518   1.403   1_556  A
C1517      C1522   1.414       .  A
C1518      H1527   1.083       .  S
C1519      C1520   1.412   1_455  A
C1519      S1523   1.804   1_455  S
C1520      C1521   1.401   1_554  A
C1521      H1528   1.083       .  S
C1522      S1524   1.805       .  S
S1523      H1526   1.408   1_655  S
S1524      H1525   1.408       .  S
C1529      C1530   1.403       .  A
C1529      C1534   1.414       .  A
C1530      C1531   1.395       .  A
C1530      H1539   1.083       .  S
C1531      C1532   1.413       .  A
C1531      S1535   1.805       .  S
C1532      C1533   1.403       .  A
C1533      C1534   1.401       .  A
C1533      H1540   1.083       .  S
C1534      S1536   1.803       .  S
S1535      H1538   1.407       .  S
S1536      H1537   1.407       .  S
C1541      C1542   1.406       .  A
C1541      C1546   1.418       .  A
C1542      C1543   1.404       .  A
C1542      H1551   1.083       .  S
C1543      C1544   1.413       .  A
C1543      S1547   1.803       .  S
C1544      C1545   1.401       .  A
C1545      C1546   1.396       .  A
C1545      H1552   1.084       .  S
C1546      S1548   1.805       .  S
S1547      H1550   1.407       .  S
S1548      H1549   1.407       .  S
C1554      C1555   1.392       .  A
C1554      H1563   1.083   1_565  S
C1555      C1556   1.412       .  A
C1555      S1559   1.803       .  S
C1556      C1557   1.402       .  A
C1557      C1558   1.388       .  A
C1557      H1564   1.084       .  S
S1559      H1562   1.407       .  S
S1560      H1561   1.407       .  S
C1565      C1566   1.402       .  A
C1565      C1570   1.412       .  A
C1566      C1567   1.395       .  A
C1566      H1575   1.084       .  S
C1567      C1568   1.411       .  A
C1567      S1571   1.806       .  S
C1568      C1569   1.402       .  A
C1569      C1570   1.399       .  A
C1569      H1576   1.083       .  S
C1570      S1572   1.804       .  S
S1571      H1574   1.407       .  S
S1572      H1573   1.407       .  S
C1577      C1578   1.404       .  A
C1577      C1582   1.415       .  A
C1578      C1579   1.399       .  A
C1578      H1587   1.084       .  S
C1579      C1580   1.413       .  A
C1579      S1583   1.805       .  S
C1580      C1581   1.406       .  A
C1581      C1582   1.408       .  A
C1581      H1588   1.083       .  S
C1582      S1584   1.803       .  S
S1583      H1586   1.407       .  S
S1584      H1585   1.407       .  S
C1589      C1590   1.405   1_556  A
C1589      C1594   1.414       .  A
C1590      C1591   1.387       .  A
C1590      H1599   1.083       .  S
C1591      S1595   1.805   1_565  S
C1593      C1594   1.388       .  A
C1594      S1596   1.804       .  S
S1596      H1597   1.408       .  S
