geometry optimzed in LAMMPS
_audit_creation_date              2020-11-30 
_audit_creation_method            'lammps2cif' 
_symmetry_space_group_name_H-M    'P1' 
_symmetry_Int_Tables_number       1 
_symmetry_cell_setting            triclinic 
loop_ 
_symmetry_equiv_pos_as_xyz 
  x,y,z 
_cell_length_a                    47.15691685695023 
_cell_length_b                    39.88905497115695 
_cell_length_c                    26.34617246030143 
_cell_angle_alpha                 89.54281496671365 
_cell_angle_beta                  90.7540541071003 
_cell_angle_gamma                 89.87360284537365 
loop_ 
_atom_site_label 
_atom_site_type_symbol 
_atom_site_fract_x 
_atom_site_fract_y 
_atom_site_fract_z 
_atom_site_charge 
C1          C  0.34929933  0.30377809  0.00802738     0.03960
C2          C  0.32142742  0.31655744  0.00892839    -0.12190
C3          C  0.29829776  0.29449333  0.01115741     0.01460
C4          C  0.30304449  0.26004526  0.01304566    -0.10710
C5          C  0.33031862  0.24638802  0.00925102     0.03960
C6          C  0.35359191  0.26836212  0.00768245    -0.10130
H7          H  0.31772617  0.34335209  0.00676079     0.09550
H8          H  0.28483325  0.24346920  0.01435111     0.07080
H9          H  0.37475825  0.25804484  0.00452159     0.06930
C10         C  0.34886133  0.30349857  0.48709835     0.03960
C11         C  0.35318058  0.26806350  0.48664494    -0.12190
C12         C  0.32988655  0.24608709  0.48487892     0.01460
C13         C  0.30254820  0.25987099  0.48176654    -0.10710
C14         C  0.29784913  0.29427671  0.48458398     0.03960
C15         C  0.32099886  0.31629352  0.48688737    -0.10130
H16         H  0.37440867  0.25772156  0.48946418     0.09550
H17         H  0.28428579  0.24336914  0.48020671     0.07080
H18         H  0.31734657  0.34303921  0.48970162     0.06930
Zn19       Zn  0.29682956  0.15371567  0.95280438     1.49720
Zn20       Zn  0.34671924  0.13834878  0.03550978     1.49360
Zn21       Zn  0.28381875  0.10557640  0.04248554     1.49110
Zn22       Zn  0.32464308  0.08410638  0.95438521     1.49480
O23         O  0.31352018  0.12076819  0.99717428    -1.83290
O24         O  0.31153261  0.19730393  0.97508672    -0.73920
O25         O  0.33848182  0.13440185  0.11136879    -0.73740
O26         O  0.24519957  0.12559802  0.02693639    -0.73260
O27         O  0.35052475  0.19049587  0.02283450    -0.73940
O28         O  0.25427937  0.15589580  0.95818142    -0.73540
O29         O  0.29501820  0.11304699  0.11482292    -0.74120
O30         O  0.29745283  0.04646410  0.96029475    -0.73510
O31         O  0.38165776  0.10622608  0.02436781    -0.74270
O32         O  0.27689157  0.05742324  0.03367396    -0.73660
O33         O  0.36141479  0.06579126  0.97869788    -0.74120
O34         O  0.32720188  0.09696997  0.88039981    -0.74030
O35         O  0.30618941  0.14665806  0.87985433    -0.73820
C36         C  0.33179908  0.20948612  0.00134833     0.77970
C37         C  0.31730487  0.12405807  0.13676290     0.78460
C38         C  0.23688845  0.14428377  0.99035887     0.77420
C39         C  0.28118966  0.03827108  0.99636429     0.77790
C40         C  0.38221816  0.07679172  0.00467748     0.78930
C41         C  0.31802644  0.12273924  0.85651278     0.77980
Zn42       Zn  0.29670578  0.15269808  0.53942034     1.49720
Zn43       Zn  0.34640237  0.13796907  0.45894830     1.49360
Zn44       Zn  0.32453336  0.08360675  0.54045658     1.49110
Zn45       Zn  0.28376779  0.10457040  0.45005262     1.49480
O46         O  0.31336972  0.12014977  0.49623033    -1.83290
O47         O  0.31132523  0.19640677  0.51767373    -0.73920
O48         O  0.38116228  0.10554668  0.47234675    -0.73740
O49         O  0.32816723  0.09659616  0.61405351    -0.73260
O50         O  0.35011079  0.19026716  0.47123890    -0.73940
O51         O  0.30598133  0.14553591  0.61302763    -0.73540
O52         O  0.36066907  0.06475015  0.51701259    -0.74120
O53         O  0.27649364  0.05659620  0.46106909    -0.73510
O54         O  0.33815435  0.13396495  0.38273495    -0.74270
O55         O  0.29701508  0.04633839  0.53595118    -0.73660
O56         O  0.29514684  0.11138785  0.37813327    -0.74120
O57         O  0.24525622  0.12498891  0.46217701    -0.74030
O58         O  0.25435310  0.15469930  0.53127144    -0.73820
C59         C  0.33144733  0.20899014  0.49218572     0.77970
C60         C  0.38151507  0.07588204  0.49205292     0.78460
C61         C  0.31860544  0.12202510  0.63718180     0.77420
C62         C  0.28066065  0.03790489  0.49961830     0.77790
C63         C  0.31720006  0.12281922  0.35676492     0.78930
C64         C  0.23701750  0.14349021  0.49814328     0.77980
C65         C  0.15616635  0.14627051  0.99501611     0.03960
C66         C  0.18404077  0.13350740  0.99291735    -0.12190
C67         C  0.20708757  0.15548647  0.98749051     0.01460
C68         C  0.20215710  0.18986038  0.98342762    -0.10710
C69         C  0.17494702  0.20358719  0.98836643     0.03960
C70         C  0.15180375  0.18165547  0.99338666    -0.10130
H71         H  0.18782254  0.10678098  0.99641289     0.09550
H72         H  0.22024060  0.20646276  0.97977215     0.07080
H73         H  0.13071769  0.19202759  0.99751359     0.06930
C74         C  0.15637386  0.14559659  0.50223147     0.03960
C75         C  0.18415988  0.13288450  0.49814559    -0.12190
C76         C  0.20736080  0.15487647  0.49975511     0.01460
C77         C  0.20271839  0.18924622  0.50310915    -0.10710
C78         C  0.17535393  0.20306158  0.50307752     0.03960
C79         C  0.15208485  0.18103781  0.50421368    -0.10130
H80         H  0.18778745  0.10609456  0.49627326     0.09550
H81         H  0.22103862  0.20567390  0.50398414     0.07080
H82         H  0.13082772  0.19133971  0.50520180     0.06930
Zn83       Zn  0.22231136  0.34308038  0.95097842     1.49720
Zn84       Zn  0.20846881  0.29655903  0.04219901     1.49360
Zn85       Zn  0.18254479  0.36660798  0.03861069     1.49110
Zn86       Zn  0.15893186  0.31179454  0.95909477     1.49480
O87         O  0.19242913  0.32917925  0.99667943    -1.83290
O88         O  0.26077612  0.32389164  0.96949538    -0.73920
O89         O  0.19844831  0.30400210  0.11437989    -0.73740
O90         O  0.20962259  0.40382673  0.02959079    -0.73260
O91         O  0.25091097  0.29436731  0.03867183    -0.73940
O92         O  0.22893753  0.39175385  0.95551555    -0.73540
O93         O  0.18064158  0.35531642  0.11296590    -0.74120
O94         O  0.12427486  0.34423364  0.97231434    -0.73510
O95         O  0.19402014  0.25287309  0.02087916    -0.74270
O96         O  0.14554897  0.38462538  0.01662252    -0.73660
O97         O  0.15501680  0.25956713  0.97315059    -0.74120
O98         O  0.16703970  0.31495728  0.88255544    -0.74030
O99         O  0.21174084  0.33230867  0.87928737    -0.73820
C100        C  0.26864046  0.30572960  0.00695885     0.77970
C101        C  0.18809209  0.32900878  0.13726637     0.78460
C102        C  0.22512377  0.41155349  0.99225169     0.77420
C103        C  0.12413703  0.37356668  0.99247386     0.77790
C104        C  0.17365242  0.24061089  0.99505364     0.78930
C105        C  0.18912236  0.32241584  0.85718102     0.77980
Zn106      Zn  0.20794034  0.29713014  0.45201277     1.49720
Zn107      Zn  0.22232492  0.34204643  0.54397728     1.49360
Zn108      Zn  0.18230329  0.36701756  0.45447609     1.49110
Zn109      Zn  0.15877746  0.31115751  0.53297402     1.49480
O110        O  0.19217984  0.32911377  0.49700809    -1.83290
O111        O  0.25028332  0.29494103  0.45632786    -0.73920
O112        O  0.22913034  0.39074690  0.53968446    -0.73740
O113        O  0.18021547  0.35648491  0.37979703    -0.73260
O114        O  0.26071445  0.32276788  0.52661977    -0.73940
O115        O  0.19751302  0.30494472  0.37980627    -0.73540
O116        O  0.20938885  0.40401577  0.46514228    -0.74120
O117        O  0.12428450  0.34386032  0.51770312    -0.73510
O118        O  0.21160029  0.33093560  0.61541279    -0.74270
O119        O  0.14544251  0.38513053  0.47499944    -0.73660
O120        O  0.16669756  0.31428590  0.60979994    -0.74120
O121        O  0.15504487  0.25874143  0.51936522    -0.74030
O122        O  0.19370719  0.25337718  0.47259124    -0.73820
C123        C  0.26826288  0.30547350  0.48876776     0.77970
C124        C  0.22500831  0.41116117  0.50314982     0.78460
C125        C  0.18728711  0.33014432  0.35617622     0.77420
C126        C  0.12409724  0.37356728  0.49801979     0.77790
C127        C  0.18870995  0.32150147  0.63635211     0.78930
C128        C  0.17368913  0.24033477  0.49769286     0.77980
C129        C  0.40679777  0.05363690  0.01218101     0.03960
C130        C  0.40238645  0.01832353  0.01058897    -0.12190
C131        C  0.42545014  0.49603793  0.01471224     0.01460
C132        C  0.45270160  0.00916928  0.02245977    -0.10710
C133        C  0.45769462  0.04358358  0.02194379     0.03960
C134        C  0.43469390  0.06598023  0.01706745    -0.10130
H135        H  0.38131271  0.00829103  0.00431539     0.09550
H136        H  0.47073706  0.99225291  0.02508471     0.07080
H137        H  0.43857799  0.09272815  0.01550833     0.06930
C138        C  0.40626491  0.05296813  0.48735246     0.03960
C139        C  0.40214587  0.01753075  0.48917952    -0.12190
C140        C  0.42555893  0.49561414  0.49210909     0.01460
C141        C  0.45286959  0.00948102  0.49291032    -0.10710
C142        C  0.45732273  0.04392620  0.49083595     0.03960
C143        C  0.43405426  0.06582579  0.48672660    -0.10130
H144        H  0.38093257  0.00720401  0.49023022     0.09550
H145        H  0.47130128  0.99317179  0.49529093     0.07080
H146        H  0.43753678  0.09266982  0.48643337     0.06930
Zn147      Zn  0.43148095  0.33415000  0.95622119     1.49720
Zn148      Zn  0.45805381  0.40424492  0.95470351     1.49360
Zn149      Zn  0.40926265  0.38786540  0.03660022     1.49110
Zn150      Zn  0.47266567  0.35665210  0.04518800     1.49480
O151        O  0.44236186  0.37102098  0.99900518    -1.83290
O152        O  0.42850399  0.34656513  0.88205820    -0.73920
O153        O  0.44373336  0.44783022  0.97766895    -0.73740
O154        O  0.37440253  0.35602157  0.02293212    -0.73260
O155        O  0.44858225  0.39683221  0.88154776    -0.73940
O156        O  0.39497511  0.31558335  0.97850916    -0.73540
O157        O  0.40547554  0.44010764  0.02527393    -0.74120
O158        O  0.46262070  0.36628133  0.11741074    -0.73510
O159        O  0.50046672  0.40645297  0.95974004    -0.74270
O160        O  0.41780211  0.38346446  0.11273051    -0.73660
O161        O  0.01107353  0.37594978  0.02808818    -0.74120
O162        O  0.47919474  0.30810755  0.03862689    -0.74030
O163        O  0.45889318  0.29674651  0.96414305    -0.73820
C164        C  0.43723553  0.37236696  0.85835312     0.77970
C165        C  0.42384276  0.45945236  0.00458048     0.78460
C166        C  0.37400357  0.32664895  0.00300989     0.77420
C167        C  0.43992121  0.37574470  0.13881278     0.77790
C168        C  0.01853632  0.39463634  0.99134387     0.78930
C169        C  0.47493093  0.28867951  0.00140448     0.77980
Zn170      Zn  0.43069497  0.33325271  0.54284681     1.49720
Zn171      Zn  0.40902373  0.38792184  0.46104605     1.49360
Zn172      Zn  0.45947535  0.40147386  0.54361571     1.49110
Zn173      Zn  0.47169011  0.35412005  0.45364596     1.49480
O174        O  0.44221422  0.36962650  0.49915563    -1.83290
O175        O  0.39445261  0.31486639  0.51869886    -0.73920
O176        O  0.40554721  0.44011412  0.47498325    -0.73740
O177        O  0.45205988  0.39287895  0.61688194    -0.73260
O178        O  0.37407572  0.35585302  0.47316215    -0.73940
O179        O  0.42745954  0.34563364  0.61661391    -0.73540
O180        O  0.44404961  0.44534185  0.52416434    -0.74120
O181        O  0.01013875  0.37433703  0.46688870    -0.73510
O182        O  0.41718996  0.38469399  0.38472099    -0.74270
O183        O  0.50156549  0.40442950  0.53534206    -0.73660
O184        O  0.46044415  0.36256163  0.38131357    -0.74120
O185        O  0.47922447  0.30603437  0.46493465    -0.74030
O186        O  0.45775050  0.29569900  0.53825584    -0.73820
C187        C  0.37358398  0.32625821  0.49308600     0.77970
C188        C  0.42397771  0.45841766  0.49808235     0.78460
C189        C  0.43877864  0.36993831  0.64026302     0.77420
C190        C  0.01860158  0.39318250  0.50255048     0.77790
C191        C  0.43841658  0.37455771  0.35929388     0.78930
C192        C  0.47437010  0.28738905  0.50304255     0.77980
C193        C  0.09921026  0.39645099  0.98863128     0.03960
C194        C  0.07133655  0.38374586  0.98790595    -0.12190
C195        C  0.04812439  0.40590568  0.98778267     0.01460
C196        C  0.05278428  0.44037570  0.98794940    -0.10710
C197        C  0.08013481  0.45385820  0.99140727     0.03960
C198        C  0.10343768  0.43182754  0.99070981    -0.10130
H199        H  0.06772703  0.35693146  0.98861100     0.09550
H200        H  0.03454316  0.45702270  0.98828761     0.07080
H201        H  0.12465186  0.44205318  0.99368543     0.06930
C202        C  0.09915045  0.39626393  0.50156649     0.03960
C203        C  0.07144771  0.38317994  0.50165724    -0.12190
C204        C  0.04809912  0.40492353  0.50393993     0.01460
C205        C  0.05241732  0.43935213  0.50670501    -0.10710
C206        C  0.07962840  0.45347617  0.50618783     0.03960
C207        C  0.10311070  0.43175085  0.50276784    -0.10130
H208        H  0.06806275  0.35636396  0.49954630     0.09550
H209        H  0.03388976  0.45550474  0.50780775     0.07080
H210        H  0.12427033  0.44225657  0.50240390     0.06930
Zn211      Zn  0.09610321  0.06231394  0.96957277     1.49720
Zn212      Zn  0.07372465  0.11660387  0.04918496     1.49360
Zn213      Zn  0.03245014  0.09203107  0.96201530     1.49110
Zn214      Zn  0.04869003  0.04557090  0.05400309     1.49480
O215        O  0.06324915  0.07884894  0.00805207    -1.83290
O216        O  0.13100795  0.09390960  0.98258028    -0.73920
O217        O  0.04654750  0.15387931  0.03898309    -0.73740
O218        O  0.04145100  0.08137864  0.88976913    -0.73260
O219        O  0.11071744  0.13471438  0.02671492    -0.73940
O220        O  0.08724174  0.06784979  0.89388369    -0.73540
O221        O  0.02525175  0.14064649  0.96623401    -0.74120
O222        O  0.00560293  0.04340217  0.05102678    -0.73510
O223        O  0.07534801  0.10544594  0.12384874    -0.74270
O224        O  0.49483800  0.07249123  0.98119539    -0.73660
O225        O  0.06136405  0.05232925  0.12684705    -0.74120
O226        O  0.06253551  0.00218436  0.02933881    -0.74030
O227        O  0.09993564  0.00989370  0.97968080    -0.73820
C228        C  0.13154956  0.12342900  0.00192334     0.77970
C229        C  0.03004592  0.16105502  0.00199580     0.78460
C230        C  0.06461597  0.07389547  0.86828093     0.77420
C231        C  0.48744136  0.05456404  0.01878531     0.77790
C232        C  0.07022607  0.07871001  0.14873744     0.78930
C233        C  0.08190322  0.99052647  0.00126538     0.77980
Zn234      Zn  0.09655265  0.06111403  0.47227120     1.49720
Zn235      Zn  0.07395217  0.11535700  0.55231676     1.49360
Zn236      Zn  0.03506719  0.09666823  0.45810627     1.49110
Zn237      Zn  0.04377953  0.04787074  0.54932542     1.49480
O238        O  0.06288919  0.07968193  0.50710560    -1.83290
O239        O  0.13131028  0.09325623  0.48670026    -0.73920
O240        O  0.04738425  0.15376509  0.54582361    -0.73740
O241        O  0.04894840  0.09223229  0.38782848    -0.73260
O242        O  0.11067990  0.13360050  0.53123930    -0.73940
O243        O  0.08993153  0.06489565  0.39494908    -0.73540
O244        O  0.02647148  0.14381229  0.47123589    -0.74120
O245        O  0.00204628  0.04456326  0.53222325    -0.73510
O246        O  0.07604296  0.10120536  0.62609448    -0.74270
O247        O  0.49672788  0.07523203  0.46216686    -0.73660
O248        O  0.04903267  0.05584226  0.62434318    -0.74120
O249        O  0.06031757  0.00416324  0.53319299    -0.74030
O250        O  0.09976302  0.00893557  0.48812512    -0.73820
C251        C  0.13167409  0.12261597  0.50675477     0.77970
C252        C  0.03097016  0.16227719  0.50938326     0.78460
C253        C  0.07048696  0.07878190  0.36777637     0.77420
C254        C  0.48670831  0.05579430  0.49570646     0.77790
C255        C  0.06339533  0.07742827  0.64893571     0.78930
C256        C  0.08093840  0.99082068  0.51010713     0.77980
C257        C  0.08856259  0.08555927  0.78594431    -0.20470
C258        C  0.06515521  0.07286148  0.81225259    -0.08510
C259        C  0.04173043  0.06069836  0.78449719     0.30340
C260        C  0.04172927  0.06146276  0.73145627    -0.20470
C261        C  0.06470390  0.07516619  0.70503162    -0.08530
C262        C  0.08824146  0.08717488  0.73279543     0.30350
F263        F  0.11098851  0.10024856  0.70864500    -0.19050
H264        H  0.10676629  0.09518889  0.80663091     0.18720
H265        H  0.02334561  0.05209845  0.71099416     0.18720
F266        F  0.01888930  0.04785117  0.80865864    -0.19040
C267        C  0.08805466  0.05531367  0.28545911    -0.20470
C268        C  0.07239136  0.07960838  0.31162060    -0.08510
C269        C  0.05737344  0.10421113  0.28335052     0.30340
C270        C  0.05782719  0.10418693  0.23047715    -0.20470
C271        C  0.07255019  0.07930586  0.20446826    -0.08530
C272        C  0.08782500  0.05484393  0.23216039     0.30350
F273        F  0.10261696  0.03078221  0.20770204    -0.19050
H274        H  0.09977025  0.03612869  0.30622911     0.18720
H275        H  0.04581996  0.12312257  0.20964213     0.18720
F276        F  0.04206717  0.12835495  0.30666673    -0.19040
C277        C  0.47298400  0.22600396  0.50335019    -0.20470
C278        C  0.48874279  0.25551787  0.50678109    -0.08510
C279        C  0.01827706  0.25447609  0.51321055     0.30340
C280        C  0.03206396  0.22367690  0.51615453    -0.20470
C281        C  0.01640116  0.19413986  0.51108267    -0.08530
C282        C  0.48683631  0.19525785  0.50468785     0.30350
F283        F  0.47150655  0.16664706  0.49989030    -0.19050
H284        H  0.45014616  0.22688387  0.49841239     0.18720
H285        H  0.05492334  0.22283470  0.52069619     0.18720
F286        F  0.03359198  0.28317625  0.51671689    -0.19040
C287        C  0.46028171  0.38403549  0.77661369    -0.20470
C288        C  0.43622898  0.37310147  0.80261171    -0.08510
C289        C  0.41264510  0.36127802  0.77500473     0.30340
C290        C  0.41335434  0.36033195  0.72189223    -0.20470
C291        C  0.43754801  0.37121108  0.69599030    -0.08530
C292        C  0.46110149  0.38288030  0.72386160     0.30350
F293        F  0.48542437  0.39172464  0.70023354    -0.19050
H294        H  0.47890469  0.39248795  0.79737867     0.18720
H295        H  0.39498838  0.35133695  0.70097388     0.18720
F296        F  0.38886914  0.35129740  0.79929886    -0.19040
C297        C  0.41344471  0.37969886  0.22101192    -0.20470
C298        C  0.43933850  0.37732067  0.19522687    -0.08510
C299        C  0.46467527  0.37553563  0.22408854     0.30340
C300        C  0.46395515  0.37511348  0.27702197    -0.20470
C301        C  0.43811958  0.37667007  0.30291219    -0.08530
C302        C  0.41276285  0.37939067  0.27428870     0.30350
F303        F  0.38728144  0.38062973  0.29756004    -0.19050
H304        H  0.39359131  0.38109003  0.19992722     0.18720
H305        H  0.48388265  0.37351684  0.29786938     0.18720
F306        F  0.49033254  0.37429114  0.20138478    -0.19040
C307        C  0.47671180  0.22934467  0.97528908    -0.20470
C308        C  0.48913715  0.25617124  0.00132602    -0.08510
C309        C  0.01524239  0.25171611  0.02683743     0.30340
C310        C  0.02850794  0.22061382  0.02664418    -0.20470
C311        C  0.01602284  0.19370567  0.00087960    -0.08530
C312        C  0.48997217  0.19819770  0.97514408     0.30350
F313        F  0.47688858  0.17234448  0.95123522    -0.19050
H314        H  0.45650225  0.23234921  0.95576893     0.18720
H315        H  0.04869597  0.21765808  0.04625449     0.18720
F316        F  0.02829766  0.27754978  0.05085603    -0.19040
C317        C  0.21372541  0.32280126  0.72037827    -0.20470
C318        C  0.18816147  0.31952012  0.69285053    -0.08510
C319        C  0.16279685  0.31563523  0.72005674     0.30340
C320        C  0.16319299  0.31589849  0.77341461    -0.20470
C321        C  0.18878668  0.32009044  0.80073577    -0.08530
C322        C  0.21415327  0.32306721  0.77331754     0.30350
F323        F  0.23961517  0.32636276  0.79740057    -0.19050
H324        H  0.23367360  0.32547234  0.70089743     0.18720
H325        H  0.14335061  0.31351785  0.79329747     0.18720
F326        F  0.13752079  0.31249403  0.69535855    -0.19040
C327        C  0.17083976  0.35307396  0.21875046    -0.20470
C328        C  0.18566756  0.32783199  0.19314514    -0.08510
C329        C  0.19945673  0.30251153  0.22173484     0.30340
C330        C  0.19895483  0.30305494  0.27450769    -0.20470
C331        C  0.18494215  0.32882752  0.30023587    -0.08530
C332        C  0.17042302  0.35364379  0.27180873     0.30350
F333        F  0.15609658  0.37862827  0.29505332    -0.19050
H334        H  0.15988992  0.37275130  0.19770740     0.18720
H335        H  0.21044220  0.28366362  0.29525634     0.18720
F336        F  0.21449823  0.27787176  0.19905094    -0.19040
C337        C  0.22613966  0.47094312  0.47889409    -0.20470
C338        C  0.23883660  0.44377891  0.50445825    -0.08510
C339        C  0.26503144  0.44790162  0.52967381     0.30340
C340        C  0.27844917  0.47888901  0.52858770    -0.20470
C341        C  0.26597907  0.00585346  0.50214715    -0.08530
C342        C  0.23952629  0.00187125  0.47782004     0.30350
F343        F  0.22638120  0.02795083  0.45376178    -0.19050
H344        H  0.20578778  0.46824654  0.45986162     0.18720
H345        H  0.29888697  0.48159185  0.54730773     0.18720
F346        F  0.27819500  0.42176266  0.55352907    -0.19040
C347        C  0.33789207  0.10210414  0.77471205    -0.20470
C348        C  0.32015997  0.12444139  0.80051729    -0.08510
C349        C  0.30330095  0.14711962  0.77202479     0.30340
C350        C  0.30380132  0.14681929  0.71914009    -0.20470
C351        C  0.32086064  0.12385532  0.69322435    -0.08530
C352        C  0.33832405  0.10176304  0.72161273     0.30350
F353        F  0.35561162  0.07961337  0.69826511    -0.19050
H354        H  0.35120322  0.08450726  0.79566068     0.18720
H355        H  0.28995580  0.16396678  0.69843925     0.18720
F356        F  0.28526373  0.16863346  0.79496080    -0.19040
C357        C  0.30043070  0.10205366  0.21956995    -0.20470
C358        C  0.31836931  0.12388728  0.19304346    -0.08510
C359        C  0.33669633  0.14492725  0.22086582     0.30340
C360        C  0.33658772  0.14428524  0.27414568    -0.20470
C361        C  0.31821455  0.12276267  0.30050522    -0.08530
C362        C  0.30036603  0.10130982  0.27245277     0.30350
F363        F  0.28306956  0.07907220  0.29597734    -0.19050
H364        H  0.28644829  0.08515519  0.19928030     0.18720
H365        H  0.35050300  0.16107619  0.29476326     0.18720
F366        F  0.35408098  0.16676315  0.19676676    -0.19040
C367        C  0.22735869  0.47068694  0.01878520    -0.20470
C368        C  0.23923912  0.44405301  0.99196377    -0.08510
C369        C  0.26490361  0.44857115  0.96627314     0.30340
C370        C  0.27844628  0.47947247  0.96762998    -0.20470
C371        C  0.26666329  0.00602590  0.99480800    -0.08530
C372        C  0.24087598  0.00154823  0.02015054     0.30350
F373        F  0.22837591  0.02711162  0.04529782    -0.19050
H374        H  0.20749004  0.46769184  0.03837526     0.18720
H375        H  0.29836554  0.48246131  0.94821287     0.18720
F376        F  0.27740266  0.42291742  0.94134914    -0.19040
C377        C  0.34929933  0.80377809  0.00802738     0.03960
C378        C  0.32142742  0.81655744  0.00892839    -0.12190
C379        C  0.29829777  0.79449333  0.01115741     0.01460
C380        C  0.30304449  0.76004526  0.01304566    -0.10710
C381        C  0.33031862  0.74638802  0.00925102     0.03960
C382        C  0.35359191  0.76836212  0.00768245    -0.10130
H383        H  0.31772617  0.84335209  0.00676079     0.09550
H384        H  0.28483325  0.74346920  0.01435111     0.07080
H385        H  0.37475825  0.75804484  0.00452159     0.06930
C386        C  0.34886133  0.80349857  0.48709835     0.03960
C387        C  0.35318058  0.76806350  0.48664494    -0.12190
C388        C  0.32988655  0.74608709  0.48487892     0.01460
C389        C  0.30254821  0.75987099  0.48176654    -0.10710
C390        C  0.29784913  0.79427671  0.48458398     0.03960
C391        C  0.32099886  0.81629352  0.48688737    -0.10130
H392        H  0.37440867  0.75772156  0.48946418     0.09550
H393        H  0.28428579  0.74336914  0.48020671     0.07080
H394        H  0.31734657  0.84303921  0.48970163     0.06930
Zn395      Zn  0.29682956  0.65371567  0.95280438     1.49720
Zn396      Zn  0.34671924  0.63834878  0.03550978     1.49360
Zn397      Zn  0.28381875  0.60557640  0.04248554     1.49110
Zn398      Zn  0.32464308  0.58410638  0.95438521     1.49480
O399        O  0.31352018  0.62076819  0.99717429    -1.83290
O400        O  0.31153261  0.69730393  0.97508673    -0.73920
O401        O  0.33848182  0.63440185  0.11136879    -0.73740
O402        O  0.24519957  0.62559802  0.02693639    -0.73260
O403        O  0.35052475  0.69049587  0.02283451    -0.73940
O404        O  0.25427937  0.65589580  0.95818142    -0.73540
O405        O  0.29501820  0.61304699  0.11482292    -0.74120
O406        O  0.29745283  0.54646410  0.96029475    -0.73510
O407        O  0.38165776  0.60622608  0.02436781    -0.74270
O408        O  0.27689157  0.55742324  0.03367396    -0.73660
O409        O  0.36141479  0.56579126  0.97869788    -0.74120
O410        O  0.32720188  0.59696997  0.88039981    -0.74030
O411        O  0.30618941  0.64665806  0.87985433    -0.73820
C412        C  0.33179908  0.70948612  0.00134833     0.77970
C413        C  0.31730486  0.62405807  0.13676290     0.78460
C414        C  0.23688845  0.64428377  0.99035887     0.77420
C415        C  0.28118966  0.53827108  0.99636429     0.77790
C416        C  0.38221816  0.57679172  0.00467748     0.78930
C417        C  0.31802644  0.62273924  0.85651278     0.77980
Zn418      Zn  0.29670578  0.65269808  0.53942035     1.49720
Zn419      Zn  0.34640237  0.63796907  0.45894830     1.49360
Zn420      Zn  0.32453336  0.58360675  0.54045658     1.49110
Zn421      Zn  0.28376779  0.60457040  0.45005262     1.49480
O422        O  0.31336972  0.62014977  0.49623033    -1.83290
O423        O  0.31132523  0.69640677  0.51767373    -0.73920
O424        O  0.38116228  0.60554668  0.47234675    -0.73740
O425        O  0.32816723  0.59659616  0.61405351    -0.73260
O426        O  0.35011079  0.69026716  0.47123891    -0.73940
O427        O  0.30598134  0.64553591  0.61302763    -0.73540
O428        O  0.36066907  0.56475015  0.51701259    -0.74120
O429        O  0.27649364  0.55659620  0.46106909    -0.73510
O430        O  0.33815435  0.63396495  0.38273495    -0.74270
O431        O  0.29701508  0.54633839  0.53595119    -0.73660
O432        O  0.29514684  0.61138785  0.37813327    -0.74120
O433        O  0.24525622  0.62498891  0.46217701    -0.74030
O434        O  0.25435310  0.65469930  0.53127144    -0.73820
C435        C  0.33144733  0.70899014  0.49218572     0.77970
C436        C  0.38151508  0.57588204  0.49205292     0.78460
C437        C  0.31860544  0.62202510  0.63718181     0.77420
C438        C  0.28066065  0.53790489  0.49961830     0.77790
C439        C  0.31720006  0.62281922  0.35676492     0.78930
C440        C  0.23701750  0.64349021  0.49814328     0.77980
C441        C  0.15616635  0.64627051  0.99501611     0.03960
C442        C  0.18404077  0.63350740  0.99291735    -0.12190
C443        C  0.20708757  0.65548647  0.98749051     0.01460
C444        C  0.20215710  0.68986038  0.98342762    -0.10710
C445        C  0.17494702  0.70358719  0.98836643     0.03960
C446        C  0.15180374  0.68165547  0.99338666    -0.10130
H447        H  0.18782254  0.60678098  0.99641289     0.09550
H448        H  0.22024060  0.70646276  0.97977215     0.07080
H449        H  0.13071769  0.69202759  0.99751359     0.06930
C450        C  0.15637386  0.64559659  0.50223147     0.03960
C451        C  0.18415988  0.63288450  0.49814559    -0.12190
C452        C  0.20736080  0.65487647  0.49975512     0.01460
C453        C  0.20271839  0.68924622  0.50310915    -0.10710
C454        C  0.17535393  0.70306158  0.50307752     0.03960
C455        C  0.15208485  0.68103781  0.50421368    -0.10130
H456        H  0.18778745  0.60609456  0.49627326     0.09550
H457        H  0.22103862  0.70567390  0.50398414     0.07080
H458        H  0.13082772  0.69133970  0.50520179     0.06930
Zn459      Zn  0.22231137  0.84308038  0.95097842     1.49720
Zn460      Zn  0.20846881  0.79655903  0.04219901     1.49360
Zn461      Zn  0.18254479  0.86660798  0.03861069     1.49110
Zn462      Zn  0.15893186  0.81179454  0.95909477     1.49480
O463        O  0.19242913  0.82917925  0.99667943    -1.83290
O464        O  0.26077612  0.82389164  0.96949539    -0.73920
O465        O  0.19844831  0.80400210  0.11437988    -0.73740
O466        O  0.20962259  0.90382672  0.02959079    -0.73260
O467        O  0.25091097  0.79436731  0.03867183    -0.73940
O468        O  0.22893753  0.89175385  0.95551555    -0.73540
O469        O  0.18064158  0.85531642  0.11296590    -0.74120
O470        O  0.12427486  0.84423364  0.97231434    -0.73510
O471        O  0.19402014  0.75287309  0.02087916    -0.74270
O472        O  0.14554897  0.88462538  0.01662252    -0.73660
O473        O  0.15501680  0.75956713  0.97315059    -0.74120
O474        O  0.16703970  0.81495728  0.88255544    -0.74030
O475        O  0.21174084  0.83230867  0.87928737    -0.73820
C476        C  0.26864046  0.80572960  0.00695885     0.77970
C477        C  0.18809209  0.82900877  0.13726637     0.78460
C478        C  0.22512377  0.91155349  0.99225169     0.77420
C479        C  0.12413704  0.87356668  0.99247386     0.77790
C480        C  0.17365242  0.74061089  0.99505364     0.78930
C481        C  0.18912236  0.82241584  0.85718102     0.77980
Zn482      Zn  0.20794034  0.79713014  0.45201277     1.49720
Zn483      Zn  0.22232492  0.84204643  0.54397728     1.49360
Zn484      Zn  0.18230329  0.86701756  0.45447609     1.49110
Zn485      Zn  0.15877746  0.81115751  0.53297402     1.49480
O486        O  0.19217984  0.82911377  0.49700809    -1.83290
O487        O  0.25028332  0.79494103  0.45632786    -0.73920
O488        O  0.22913034  0.89074690  0.53968445    -0.73740
O489        O  0.18021547  0.85648491  0.37979703    -0.73260
O490        O  0.26071445  0.82276788  0.52661977    -0.73940
O491        O  0.19751302  0.80494472  0.37980627    -0.73540
O492        O  0.20938886  0.90401577  0.46514227    -0.74120
O493        O  0.12428450  0.84386032  0.51770312    -0.73510
O494        O  0.21160029  0.83093560  0.61541279    -0.74270
O495        O  0.14544251  0.88513053  0.47499944    -0.73660
O496        O  0.16669756  0.81428590  0.60979994    -0.74120
O497        O  0.15504488  0.75874143  0.51936522    -0.74030
O498        O  0.19370719  0.75337718  0.47259124    -0.73820
C499        C  0.26826288  0.80547350  0.48876776     0.77970
C500        C  0.22500831  0.91116117  0.50314982     0.78460
C501        C  0.18728711  0.83014432  0.35617622     0.77420
C502        C  0.12409724  0.87356728  0.49801979     0.77790
C503        C  0.18870996  0.82150147  0.63635211     0.78930
C504        C  0.17368913  0.74033477  0.49769286     0.77980
C505        C  0.40679777  0.55363690  0.01218102     0.03960
C506        C  0.40238645  0.51832353  0.01058897    -0.12190
C507        C  0.42545014  0.99603793  0.01471225     0.01460
C508        C  0.45270159  0.50916927  0.02245976    -0.10710
C509        C  0.45769462  0.54358358  0.02194379     0.03960
C510        C  0.43469390  0.56598023  0.01706745    -0.10130
H511        H  0.38131271  0.50829103  0.00431539     0.09550
H512        H  0.47073705  0.49225291  0.02508470     0.07080
H513        H  0.43857799  0.59272815  0.01550833     0.06930
C514        C  0.40626491  0.55296813  0.48735246     0.03960
C515        C  0.40214587  0.51753075  0.48917952    -0.12190
C516        C  0.42555893  0.99561414  0.49210908     0.01460
C517        C  0.45286959  0.50948102  0.49291032    -0.10710
C518        C  0.45732273  0.54392620  0.49083595     0.03960
C519        C  0.43405426  0.56582579  0.48672659    -0.10130
H520        H  0.38093257  0.50720401  0.49023023     0.09550
H521        H  0.47130128  0.49317179  0.49529094     0.07080
H522        H  0.43753678  0.59266982  0.48643336     0.06930
Zn523      Zn  0.43148095  0.83415000  0.95622119     1.49720
Zn524      Zn  0.45805381  0.90424492  0.95470352     1.49360
Zn525      Zn  0.40926265  0.88786540  0.03660022     1.49110
Zn526      Zn  0.47266568  0.85665210  0.04518800     1.49480
O527        O  0.44236187  0.87102098  0.99900518    -1.83290
O528        O  0.42850399  0.84656513  0.88205820    -0.73920
O529        O  0.44373336  0.94783023  0.97766896    -0.73740
O530        O  0.37440253  0.85602157  0.02293212    -0.73260
O531        O  0.44858224  0.89683222  0.88154776    -0.73940
O532        O  0.39497511  0.81558335  0.97850916    -0.73540
O533        O  0.40547554  0.94010764  0.02527394    -0.74120
O534        O  0.46262070  0.86628132  0.11741073    -0.73510
O535        O  0.50046672  0.90645297  0.95974004    -0.74270
O536        O  0.41780211  0.88346446  0.11273051    -0.73660
O537        O  0.01107353  0.87594978  0.02808818    -0.74120
O538        O  0.47919474  0.80810755  0.03862688    -0.74030
O539        O  0.45889318  0.79674651  0.96414304    -0.73820
C540        C  0.43723553  0.87236697  0.85835312     0.77970
C541        C  0.42384276  0.95945237  0.00458049     0.78460
C542        C  0.37400357  0.82664895  0.00300989     0.77420
C543        C  0.43992121  0.87574470  0.13881277     0.77790
C544        C  0.01853632  0.89463634  0.99134387     0.78930
C545        C  0.47493093  0.78867951  0.00140447     0.77980
Zn546      Zn  0.43069497  0.83325271  0.54284682     1.49720
Zn547      Zn  0.40902373  0.88792184  0.46104605     1.49360
Zn548      Zn  0.45947535  0.90147386  0.54361570     1.49110
Zn549      Zn  0.47169011  0.85412005  0.45364596     1.49480
O550        O  0.44221422  0.86962650  0.49915563    -1.83290
O551        O  0.39445261  0.81486639  0.51869887    -0.73920
O552        O  0.40554721  0.94011412  0.47498325    -0.73740
O553        O  0.45205988  0.89287897  0.61688193    -0.73260
O554        O  0.37407573  0.85585302  0.47316215    -0.73940
O555        O  0.42745955  0.84563364  0.61661392    -0.73540
O556        O  0.44404961  0.94534185  0.52416432    -0.74120
O557        O  0.01013875  0.87433703  0.46688869    -0.73510
O558        O  0.41718996  0.88469399  0.38472099    -0.74270
O559        O  0.50156549  0.90442951  0.53534206    -0.73660
O560        O  0.46044415  0.86256162  0.38131357    -0.74120
O561        O  0.47922447  0.80603436  0.46493465    -0.74030
O562        O  0.45775050  0.79569900  0.53825584    -0.73820
C563        C  0.37358399  0.82625821  0.49308600     0.77970
C564        C  0.42397771  0.95841766  0.49808234     0.78460
C565        C  0.43877864  0.86993832  0.64026301     0.77420
C566        C  0.01860158  0.89318250  0.50255048     0.77790
C567        C  0.43841659  0.87455771  0.35929387     0.78930
C568        C  0.47437010  0.78738905  0.50304255     0.77980
C569        C  0.09921026  0.89645099  0.98863129     0.03960
C570        C  0.07133655  0.88374586  0.98790595    -0.12190
C571        C  0.04812439  0.90590568  0.98778267     0.01460
C572        C  0.05278428  0.94037570  0.98794940    -0.10710
C573        C  0.08013481  0.95385820  0.99140727     0.03960
C574        C  0.10343768  0.93182754  0.99070982    -0.10130
H575        H  0.06772704  0.85693145  0.98861100     0.09550
H576        H  0.03454316  0.95702269  0.98828761     0.07080
H577        H  0.12465186  0.94205318  0.99368543     0.06930
C578        C  0.09915045  0.89626393  0.50156649     0.03960
C579        C  0.07144771  0.88317994  0.50165724    -0.12190
C580        C  0.04809913  0.90492353  0.50393993     0.01460
C581        C  0.05241732  0.93935213  0.50670501    -0.10710
C582        C  0.07962840  0.95347617  0.50618783     0.03960
C583        C  0.10311071  0.93175085  0.50276784    -0.10130
H584        H  0.06806275  0.85636396  0.49954630     0.09550
H585        H  0.03388976  0.95550474  0.50780775     0.07080
H586        H  0.12427033  0.94225657  0.50240390     0.06930
Zn587      Zn  0.09610320  0.56231394  0.96957277     1.49720
Zn588      Zn  0.07372465  0.61660387  0.04918496     1.49360
Zn589      Zn  0.03245014  0.59203107  0.96201529     1.49110
Zn590      Zn  0.04869003  0.54557090  0.05400309     1.49480
O591        O  0.06324915  0.57884894  0.00805207    -1.83290
O592        O  0.13100795  0.59390960  0.98258028    -0.73920
O593        O  0.04654749  0.65387931  0.03898308    -0.73740
O594        O  0.04145100  0.58137863  0.88976912    -0.73260
O595        O  0.11071744  0.63471438  0.02671491    -0.73940
O596        O  0.08724174  0.56784979  0.89388369    -0.73540
O597        O  0.02525175  0.64064649  0.96623400    -0.74120
O598        O  0.00560293  0.54340217  0.05102678    -0.73510
O599        O  0.07534800  0.60544595  0.12384873    -0.74270
O600        O  0.49483800  0.57249123  0.98119539    -0.73660
O601        O  0.06136405  0.55232926  0.12684705    -0.74120
O602        O  0.06253551  0.50218436  0.02933881    -0.74030
O603        O  0.09993564  0.50989370  0.97968080    -0.73820
C604        C  0.13154955  0.62342900  0.00192334     0.77970
C605        C  0.03004592  0.66105502  0.00199579     0.78460
C606        C  0.06461597  0.57389546  0.86828093     0.77420
C607        C  0.48744136  0.55456404  0.01878531     0.77790
C608        C  0.07022607  0.57871002  0.14873744     0.78930
C609        C  0.08190322  0.49052647  0.00126538     0.77980
Zn610      Zn  0.09655265  0.56111403  0.47227120     1.49720
Zn611      Zn  0.07395217  0.61535700  0.55231676     1.49360
Zn612      Zn  0.03506719  0.59666823  0.45810626     1.49110
Zn613      Zn  0.04377953  0.54787074  0.54932542     1.49480
O614        O  0.06288919  0.57968193  0.50710560    -1.83290
O615        O  0.13131028  0.59325623  0.48670027    -0.73920
O616        O  0.04738425  0.65376509  0.54582361    -0.73740
O617        O  0.04894841  0.59223230  0.38782848    -0.73260
O618        O  0.11067990  0.63360050  0.53123930    -0.73940
O619        O  0.08993153  0.56489565  0.39494908    -0.73540
O620        O  0.02647148  0.64381228  0.47123590    -0.74120
O621        O  0.00204628  0.54456326  0.53222325    -0.73510
O622        O  0.07604296  0.60120535  0.62609448    -0.74270
O623        O  0.49672789  0.57523203  0.46216685    -0.73660
O624        O  0.04903267  0.55584226  0.62434317    -0.74120
O625        O  0.06031757  0.50416324  0.53319299    -0.74030
O626        O  0.09976302  0.50893557  0.48812512    -0.73820
C627        C  0.13167409  0.62261597  0.50675477     0.77970
C628        C  0.03097015  0.66227718  0.50938326     0.78460
C629        C  0.07048696  0.57878190  0.36777637     0.77420
C630        C  0.48670831  0.55579430  0.49570646     0.77790
C631        C  0.06339533  0.57742827  0.64893570     0.78930
C632        C  0.08093840  0.49082068  0.51010713     0.77980
C633        C  0.08856259  0.58555927  0.78594431    -0.20470
C634        C  0.06515521  0.57286148  0.81225258    -0.08510
C635        C  0.04173043  0.56069835  0.78449718     0.30340
C636        C  0.04172927  0.56146276  0.73145627    -0.20470
C637        C  0.06470390  0.57516618  0.70503162    -0.08530
C638        C  0.08824146  0.58717488  0.73279543     0.30350
F639        F  0.11098851  0.60024857  0.70864500    -0.19050
H640        H  0.10676629  0.59518890  0.80663091     0.18720
H641        H  0.02334561  0.55209844  0.71099416     0.18720
F642        F  0.01888930  0.54785116  0.80865863    -0.19040
C643        C  0.08805464  0.55531365  0.28545911    -0.20470
C644        C  0.07239136  0.57960838  0.31162060    -0.08510
C645        C  0.05737347  0.60421115  0.28335052     0.30340
C646        C  0.05782722  0.60418696  0.23047715    -0.20470
C647        C  0.07255019  0.57930586  0.20446826    -0.08530
C648        C  0.08782498  0.55484392  0.23216039     0.30350
F649        F  0.10261691  0.53078217  0.20770204    -0.19050
H650        H  0.09977021  0.53612866  0.30622910     0.18720
H651        H  0.04582002  0.62312262  0.20964214     0.18720
F652        F  0.04206723  0.62835500  0.30666674    -0.19040
C653        C  0.47298400  0.72600396  0.50335020    -0.20470
C654        C  0.48874279  0.75551786  0.50678109    -0.08510
C655        C  0.01827706  0.75447609  0.51321055     0.30340
C656        C  0.03206396  0.72367690  0.51615454    -0.20470
C657        C  0.01640116  0.69413986  0.51108267    -0.08530
C658        C  0.48683630  0.69525784  0.50468785     0.30350
F659        F  0.47150654  0.66664706  0.49989030    -0.19050
H660        H  0.45014616  0.72688387  0.49841239     0.18720
H661        H  0.05492334  0.72283470  0.52069620     0.18720
F662        F  0.03359198  0.78317624  0.51671689    -0.19040
C663        C  0.46028166  0.88403562  0.77661369    -0.20470
C664        C  0.43622897  0.87310148  0.80261171    -0.08510
C665        C  0.41264513  0.86127792  0.77500473     0.30340
C666        C  0.41335437  0.86033186  0.72189223    -0.20470
C667        C  0.43754801  0.87121110  0.69599030    -0.08530
C668        C  0.46110145  0.88288043  0.72386159     0.30350
F669        F  0.48542430  0.89172488  0.70023354    -0.19050
H670        H  0.47890462  0.89248816  0.79737866     0.18720
H671        H  0.39498844  0.85133677  0.70097389     0.18720
F672        F  0.38886920  0.85129720  0.79929887    -0.19040
C673        C  0.41344472  0.87969887  0.22101192    -0.20470
C674        C  0.43933850  0.87732066  0.19522687    -0.08510
C675        C  0.46467527  0.87553561  0.22408854     0.30340
C676        C  0.46395515  0.87511346  0.27702197    -0.20470
C677        C  0.43811958  0.87667006  0.30291219    -0.08530
C678        C  0.41276285  0.87939068  0.27428870     0.30350
F679        F  0.38728144  0.88062975  0.29756004    -0.19050
H680        H  0.39359131  0.88109005  0.19992722     0.18720
H681        H  0.48388265  0.87351681  0.29786938     0.18720
F682        F  0.49033254  0.87429110  0.20138478    -0.19040
C683        C  0.47671180  0.72934467  0.97528906    -0.20470
C684        C  0.48913715  0.75617124  0.00132600    -0.08510
C685        C  0.01524239  0.75171611  0.02683741     0.30340
C686        C  0.02850794  0.72061382  0.02664416    -0.20470
C687        C  0.01602284  0.69370567  0.00087958    -0.08530
C688        C  0.48997217  0.69819770  0.97514406     0.30350
F689        F  0.47688858  0.67234448  0.95123521    -0.19050
H690        H  0.45650225  0.73234921  0.95576892     0.18720
H691        H  0.04869597  0.71765808  0.04625447     0.18720
F692        F  0.02829766  0.77754978  0.05085600    -0.19040
C693        C  0.21372541  0.82280126  0.72037827    -0.20470
C694        C  0.18816147  0.81952012  0.69285053    -0.08510
C695        C  0.16279685  0.81563523  0.72005674     0.30340
C696        C  0.16319299  0.81589849  0.77341461    -0.20470
C697        C  0.18878669  0.82009044  0.80073577    -0.08530
C698        C  0.21415327  0.82306721  0.77331754     0.30350
F699        F  0.23961517  0.82636276  0.79740057    -0.19050
H700        H  0.23367360  0.82547234  0.70089743     0.18720
H701        H  0.14335061  0.81351785  0.79329747     0.18720
F702        F  0.13752079  0.81249403  0.69535855    -0.19040
C703        C  0.17083976  0.85307396  0.21875046    -0.20470
C704        C  0.18566756  0.82783199  0.19314514    -0.08510
C705        C  0.19945673  0.80251153  0.22173484     0.30340
C706        C  0.19895483  0.80305493  0.27450769    -0.20470
C707        C  0.18494215  0.82882752  0.30023587    -0.08530
C708        C  0.17042302  0.85364379  0.27180873     0.30350
F709        F  0.15609658  0.87862826  0.29505332    -0.19050
H710        H  0.15988992  0.87275129  0.19770740     0.18720
H711        H  0.21044220  0.78366362  0.29525634     0.18720
F712        F  0.21449823  0.77787176  0.19905094    -0.19040
C713        C  0.22613966  0.97094311  0.47889409    -0.20470
C714        C  0.23883660  0.94377891  0.50445824    -0.08510
C715        C  0.26503144  0.94790162  0.52967381     0.30340
C716        C  0.27844917  0.97888901  0.52858770    -0.20470
C717        C  0.26597907  0.50585346  0.50214715    -0.08530
C718        C  0.23952629  0.50187125  0.47782004     0.30350
F719        F  0.22638120  0.52795083  0.45376179    -0.19050
H720        H  0.20578778  0.96824653  0.45986162     0.18720
H721        H  0.29888696  0.98159185  0.54730773     0.18720
F722        F  0.27819500  0.92176266  0.55352907    -0.19040
C723        C  0.33789207  0.60210414  0.77471205    -0.20470
C724        C  0.32015997  0.62444140  0.80051729    -0.08510
C725        C  0.30330095  0.64711962  0.77202479     0.30340
C726        C  0.30380132  0.64681929  0.71914009    -0.20470
C727        C  0.32086064  0.62385532  0.69322435    -0.08530
C728        C  0.33832405  0.60176304  0.72161273     0.30350
F729        F  0.35561162  0.57961337  0.69826511    -0.19050
H730        H  0.35120323  0.58450726  0.79566068     0.18720
H731        H  0.28995580  0.66396678  0.69843924     0.18720
F732        F  0.28526373  0.66863346  0.79496080    -0.19040
C733        C  0.30043069  0.60205366  0.21956995    -0.20470
C734        C  0.31836931  0.62388727  0.19304346    -0.08510
C735        C  0.33669633  0.64492725  0.22086582     0.30340
C736        C  0.33658772  0.64428524  0.27414568    -0.20470
C737        C  0.31821455  0.62276267  0.30050522    -0.08530
C738        C  0.30036603  0.60130982  0.27245277     0.30350
F739        F  0.28306956  0.57907220  0.29597734    -0.19050
H740        H  0.28644829  0.58515519  0.19928031     0.18720
H741        H  0.35050300  0.66107619  0.29476326     0.18720
F742        F  0.35408098  0.66676315  0.19676676    -0.19040
C743        C  0.22735869  0.97068694  0.01878520    -0.20470
C744        C  0.23923912  0.94405301  0.99196378    -0.08510
C745        C  0.26490361  0.94857115  0.96627314     0.30340
C746        C  0.27844628  0.97947247  0.96762998    -0.20470
C747        C  0.26666329  0.50602590  0.99480800    -0.08530
C748        C  0.24087598  0.50154823  0.02015054     0.30350
F749        F  0.22837591  0.52711162  0.04529781    -0.19050
H750        H  0.20749005  0.96769184  0.03837526     0.18720
H751        H  0.29836554  0.98246131  0.94821287     0.18720
F752        F  0.27740266  0.92291742  0.94134914    -0.19040
C753        C  0.84929933  0.30377809  0.00802738     0.03960
C754        C  0.82142742  0.31655744  0.00892838    -0.12190
C755        C  0.79829776  0.29449333  0.01115740     0.01460
C756        C  0.80304449  0.26004526  0.01304565    -0.10710
C757        C  0.83031862  0.24638802  0.00925101     0.03960
C758        C  0.85359191  0.26836212  0.00768245    -0.10130
H759        H  0.81772617  0.34335209  0.00676078     0.09550
H760        H  0.78483325  0.24346920  0.01435111     0.07080
H761        H  0.87475825  0.25804484  0.00452159     0.06930
C762        C  0.84886133  0.30349857  0.48709834     0.03960
C763        C  0.85318058  0.26806350  0.48664493    -0.12190
C764        C  0.82988655  0.24608709  0.48487892     0.01460
C765        C  0.80254820  0.25987099  0.48176654    -0.10710
C766        C  0.79784913  0.29427671  0.48458398     0.03960
C767        C  0.82099886  0.31629352  0.48688737    -0.10130
H768        H  0.87440867  0.25772156  0.48946417     0.09550
H769        H  0.78428579  0.24336914  0.48020671     0.07080
H770        H  0.81734657  0.34303921  0.48970162     0.06930
Zn771      Zn  0.79682956  0.15371567  0.95280438     1.49720
Zn772      Zn  0.84671924  0.13834878  0.03550978     1.49360
Zn773      Zn  0.78381875  0.10557640  0.04248554     1.49110
Zn774      Zn  0.82464308  0.08410638  0.95438521     1.49480
O775        O  0.81352018  0.12076819  0.99717428    -1.83290
O776        O  0.81153261  0.19730393  0.97508672    -0.73920
O777        O  0.83848182  0.13440185  0.11136878    -0.73740
O778        O  0.74519957  0.12559802  0.02693639    -0.73260
O779        O  0.85052475  0.19049587  0.02283450    -0.73940
O780        O  0.75427937  0.15589580  0.95818142    -0.73540
O781        O  0.79501821  0.11304699  0.11482292    -0.74120
O782        O  0.79745283  0.04646410  0.96029474    -0.73510
O783        O  0.88165777  0.10622608  0.02436781    -0.74270
O784        O  0.77689157  0.05742324  0.03367396    -0.73660
O785        O  0.86141479  0.06579126  0.97869788    -0.74120
O786        O  0.82720188  0.09696997  0.88039981    -0.74030
O787        O  0.80618941  0.14665806  0.87985432    -0.73820
C788        C  0.83179908  0.20948612  0.00134833     0.77970
C789        C  0.81730487  0.12405807  0.13676290     0.78460
C790        C  0.73688845  0.14428377  0.99035887     0.77420
C791        C  0.78118966  0.03827108  0.99636428     0.77790
C792        C  0.88221816  0.07679172  0.00467747     0.78930
C793        C  0.81802644  0.12273924  0.85651278     0.77980
Zn794      Zn  0.79670578  0.15269808  0.53942034     1.49720
Zn795      Zn  0.84640237  0.13796907  0.45894830     1.49360
Zn796      Zn  0.82453336  0.08360675  0.54045658     1.49110
Zn797      Zn  0.78376779  0.10457040  0.45005262     1.49480
O798        O  0.81336972  0.12014977  0.49623032    -1.83290
O799        O  0.81132523  0.19640677  0.51767373    -0.73920
O800        O  0.88116228  0.10554668  0.47234675    -0.73740
O801        O  0.82816723  0.09659616  0.61405351    -0.73260
O802        O  0.85011079  0.19026716  0.47123890    -0.73940
O803        O  0.80598133  0.14553591  0.61302763    -0.73540
O804        O  0.86066907  0.06475015  0.51701259    -0.74120
O805        O  0.77649364  0.05659620  0.46106909    -0.73510
O806        O  0.83815435  0.13396495  0.38273495    -0.74270
O807        O  0.79701508  0.04633839  0.53595118    -0.73660
O808        O  0.79514684  0.11138785  0.37813327    -0.74120
O809        O  0.74525622  0.12498890  0.46217701    -0.74030
O810        O  0.75435310  0.15469930  0.53127144    -0.73820
C811        C  0.83144733  0.20899014  0.49218572     0.77970
C812        C  0.88151507  0.07588204  0.49205292     0.78460
C813        C  0.81860544  0.12202510  0.63718180     0.77420
C814        C  0.78066065  0.03790489  0.49961830     0.77790
C815        C  0.81720007  0.12281922  0.35676491     0.78930
C816        C  0.73701750  0.14349021  0.49814327     0.77980
C817        C  0.65616635  0.14627051  0.99501611     0.03960
C818        C  0.68404077  0.13350740  0.99291735    -0.12190
C819        C  0.70708757  0.15548647  0.98749051     0.01460
C820        C  0.70215710  0.18986038  0.98342762    -0.10710
C821        C  0.67494702  0.20358719  0.98836643     0.03960
C822        C  0.65180375  0.18165547  0.99338666    -0.10130
H823        H  0.68782254  0.10678098  0.99641289     0.09550
H824        H  0.72024060  0.20646276  0.97977215     0.07080
H825        H  0.63071769  0.19202759  0.99751359     0.06930
C826        C  0.65637386  0.14559659  0.50223147     0.03960
C827        C  0.68415988  0.13288450  0.49814559    -0.12190
C828        C  0.70736080  0.15487647  0.49975511     0.01460
C829        C  0.70271839  0.18924622  0.50310915    -0.10710
C830        C  0.67535393  0.20306158  0.50307751     0.03960
C831        C  0.65208485  0.18103781  0.50421368    -0.10130
H832        H  0.68778745  0.10609456  0.49627326     0.09550
H833        H  0.72103862  0.20567390  0.50398413     0.07080
H834        H  0.63082772  0.19133970  0.50520179     0.06930
Zn835      Zn  0.72231136  0.34308038  0.95097841     1.49720
Zn836      Zn  0.70846881  0.29655903  0.04219901     1.49360
Zn837      Zn  0.68254479  0.36660798  0.03861069     1.49110
Zn838      Zn  0.65893186  0.31179454  0.95909477     1.49480
O839        O  0.69242913  0.32917925  0.99667942    -1.83290
O840        O  0.76077612  0.32389164  0.96949538    -0.73920
O841        O  0.69844832  0.30400210  0.11437988    -0.73740
O842        O  0.70962259  0.40382673  0.02959078    -0.73260
O843        O  0.75091097  0.29436732  0.03867183    -0.73940
O844        O  0.72893753  0.39175385  0.95551554    -0.73540
O845        O  0.68064159  0.35531643  0.11296590    -0.74120
O846        O  0.62427486  0.34423364  0.97231435    -0.73510
O847        O  0.69402014  0.25287309  0.02087917    -0.74270
O848        O  0.64554897  0.38462538  0.01662253    -0.73660
O849        O  0.65501680  0.25956713  0.97315060    -0.74120
O850        O  0.66703970  0.31495728  0.88255544    -0.74030
O851        O  0.71174084  0.33230867  0.87928737    -0.73820
C852        C  0.76864046  0.30572960  0.00695884     0.77970
C853        C  0.68809209  0.32900878  0.13726637     0.78460
C854        C  0.72512377  0.41155349  0.99225169     0.77420
C855        C  0.62413703  0.37356668  0.99247387     0.77790
C856        C  0.67365243  0.24061089  0.99505364     0.78930
C857        C  0.68912236  0.32241584  0.85718101     0.77980
Zn858      Zn  0.70794034  0.29713014  0.45201277     1.49720
Zn859      Zn  0.72232492  0.34204643  0.54397728     1.49360
Zn860      Zn  0.68230329  0.36701756  0.45447609     1.49110
Zn861      Zn  0.65877746  0.31115750  0.53297402     1.49480
O862        O  0.69217984  0.32911377  0.49700809    -1.83290
O863        O  0.75028332  0.29494103  0.45632786    -0.73920
O864        O  0.72913034  0.39074690  0.53968446    -0.73740
O865        O  0.68021548  0.35648491  0.37979703    -0.73260
O866        O  0.76071445  0.32276788  0.52661977    -0.73940
O867        O  0.69751302  0.30494472  0.37980627    -0.73540
O868        O  0.70938885  0.40401577  0.46514228    -0.74120
O869        O  0.62428450  0.34386032  0.51770312    -0.73510
O870        O  0.71160029  0.33093559  0.61541279    -0.74270
O871        O  0.64544251  0.38513053  0.47499944    -0.73660
O872        O  0.66669756  0.31428590  0.60979994    -0.74120
O873        O  0.65504488  0.25874143  0.51936522    -0.74030
O874        O  0.69370719  0.25337718  0.47259124    -0.73820
C875        C  0.76826288  0.30547350  0.48876776     0.77970
C876        C  0.72500831  0.41116117  0.50314983     0.78460
C877        C  0.68728711  0.33014432  0.35617622     0.77420
C878        C  0.62409724  0.37356728  0.49801979     0.77790
C879        C  0.68870995  0.32150147  0.63635211     0.78930
C880        C  0.67368913  0.24033477  0.49769285     0.77980
C881        C  0.90679777  0.05363690  0.01218101     0.03960
C882        C  0.90238645  0.01832353  0.01058897    -0.12190
C883        C  0.92545014  0.49603793  0.01471223     0.01460
C884        C  0.95270160  0.00916927  0.02245976    -0.10710
C885        C  0.95769463  0.04358358  0.02194378     0.03960
C886        C  0.93469390  0.06598023  0.01706745    -0.10130
H887        H  0.88131271  0.00829103  0.00431538     0.09550
H888        H  0.97073706  0.99225291  0.02508470     0.07080
H889        H  0.93857799  0.09272815  0.01550833     0.06930
C890        C  0.90626491  0.05296813  0.48735246     0.03960
C891        C  0.90214587  0.01753075  0.48917952    -0.12190
C892        C  0.92555893  0.49561414  0.49210910     0.01460
C893        C  0.95286959  0.00948102  0.49291033    -0.10710
C894        C  0.95732273  0.04392620  0.49083596     0.03960
C895        C  0.93405426  0.06582579  0.48672660    -0.10130
H896        H  0.88093257  0.00720401  0.49023023     0.09550
H897        H  0.97130128  0.99317179  0.49529095     0.07080
H898        H  0.93753678  0.09266982  0.48643337     0.06930
Zn899      Zn  0.93148095  0.33415000  0.95622119     1.49720
Zn900      Zn  0.95805381  0.40424492  0.95470351     1.49360
Zn901      Zn  0.90926265  0.38786540  0.03660021     1.49110
Zn902      Zn  0.97266568  0.35665211  0.04518800     1.49480
O903        O  0.94236187  0.37102099  0.99900518    -1.83290
O904        O  0.92850399  0.34656512  0.88205820    -0.73920
O905        O  0.94373336  0.44783022  0.97766894    -0.73740
O906        O  0.87440253  0.35602157  0.02293211    -0.73260
O907        O  0.94858226  0.39683221  0.88154774    -0.73940
O908        O  0.89497511  0.31558335  0.97850916    -0.73540
O909        O  0.90547554  0.44010764  0.02527393    -0.74120
O910        O  0.96262070  0.36628134  0.11741073    -0.73510
O911        O  0.00046672  0.40645297  0.95974003    -0.74270
O912        O  0.91780211  0.38346446  0.11273051    -0.73660
O913        O  0.51107353  0.37594978  0.02808819    -0.74120
O914        O  0.97919474  0.30810756  0.03862690    -0.74030
O915        O  0.95889318  0.29674651  0.96414305    -0.73820
C916        C  0.93723554  0.37236696  0.85835311     0.77970
C917        C  0.92384276  0.45945236  0.00458047     0.78460
C918        C  0.87400357  0.32664895  0.00300988     0.77420
C919        C  0.93992121  0.37574471  0.13881277     0.77790
C920        C  0.51853632  0.39463634  0.99134387     0.78930
C921        C  0.97493093  0.28867951  0.00140449     0.77980
Zn922      Zn  0.93069497  0.33325271  0.54284681     1.49720
Zn923      Zn  0.90902373  0.38792184  0.46104605     1.49360
Zn924      Zn  0.95947535  0.40147386  0.54361572     1.49110
Zn925      Zn  0.97169011  0.35412006  0.45364596     1.49480
O926        O  0.94221422  0.36962650  0.49915563    -1.83290
O927        O  0.89445261  0.31486639  0.51869885    -0.73920
O928        O  0.90554721  0.44011412  0.47498326    -0.73740
O929        O  0.95205989  0.39287894  0.61688195    -0.73260
O930        O  0.87407572  0.35585303  0.47316215    -0.73940
O931        O  0.92745953  0.34563364  0.61661391    -0.73540
O932        O  0.94404961  0.44534185  0.52416436    -0.74120
O933        O  0.51013875  0.37433703  0.46688869    -0.73510
O934        O  0.91718996  0.38469400  0.38472099    -0.74270
O935        O  0.00156549  0.40442951  0.53534207    -0.73660
O936        O  0.96044415  0.36256163  0.38131357    -0.74120
O937        O  0.97922446  0.30603437  0.46493465    -0.74030
O938        O  0.95775050  0.29569900  0.53825584    -0.73820
C939        C  0.87358398  0.32625821  0.49308599     0.77970
C940        C  0.92397771  0.45841766  0.49808236     0.78460
C941        C  0.93877864  0.36993830  0.64026302     0.77420
C942        C  0.51860158  0.39318250  0.50255048     0.77790
C943        C  0.93841659  0.37455772  0.35929388     0.78930
C944        C  0.97437010  0.28738905  0.50304255     0.77980
C945        C  0.59921026  0.39645099  0.98863129     0.03960
C946        C  0.57133655  0.38374586  0.98790596    -0.12190
C947        C  0.54812439  0.40590568  0.98778267     0.01460
C948        C  0.55278428  0.44037570  0.98794941    -0.10710
C949        C  0.58013481  0.45385820  0.99140728     0.03960
C950        C  0.60343768  0.43182754  0.99070982    -0.10130
H951        H  0.56772703  0.35693146  0.98861100     0.09550
H952        H  0.53454316  0.45702270  0.98828762     0.07080
H953        H  0.62465186  0.44205318  0.99368543     0.06930
C954        C  0.59915045  0.39626393  0.50156649     0.03960
C955        C  0.57144771  0.38317994  0.50165724    -0.12190
C956        C  0.54809912  0.40492353  0.50393993     0.01460
C957        C  0.55241732  0.43935213  0.50670501    -0.10710
C958        C  0.57962840  0.45347616  0.50618783     0.03960
C959        C  0.60311070  0.43175085  0.50276783    -0.10130
H960        H  0.56806275  0.35636396  0.49954630     0.09550
H961        H  0.53388976  0.45550474  0.50780775     0.07080
H962        H  0.62427033  0.44225657  0.50240390     0.06930
Zn963      Zn  0.59610320  0.06231394  0.96957277     1.49720
Zn964      Zn  0.57372465  0.11660387  0.04918496     1.49360
Zn965      Zn  0.53245014  0.09203107  0.96201529     1.49110
Zn966      Zn  0.54869003  0.04557090  0.05400309     1.49480
O967        O  0.56324915  0.07884894  0.00805207    -1.83290
O968        O  0.63100795  0.09390960  0.98258028    -0.73920
O969        O  0.54654749  0.15387931  0.03898308    -0.73740
O970        O  0.54145100  0.08137863  0.88976912    -0.73260
O971        O  0.61071744  0.13471438  0.02671491    -0.73940
O972        O  0.58724174  0.06784979  0.89388369    -0.73540
O973        O  0.52525175  0.14064649  0.96623400    -0.74120
O974        O  0.50560293  0.04340217  0.05102678    -0.73510
O975        O  0.57534801  0.10544595  0.12384873    -0.74270
O976        O  0.99483800  0.07249123  0.98119539    -0.73660
O977        O  0.56136405  0.05232926  0.12684705    -0.74120
O978        O  0.56253551  0.00218436  0.02933881    -0.74030
O979        O  0.59993564  0.00989370  0.97968081    -0.73820
C980        C  0.63154955  0.12342900  0.00192334     0.77970
C981        C  0.53004592  0.16105502  0.00199579     0.78460
C982        C  0.56461597  0.07389546  0.86828093     0.77420
C983        C  0.98744136  0.05456404  0.01878531     0.77790
C984        C  0.57022607  0.07871002  0.14873744     0.78930
C985        C  0.58190322  0.99052647  0.00126538     0.77980
Zn986      Zn  0.59655265  0.06111403  0.47227120     1.49720
Zn987      Zn  0.57395217  0.11535700  0.55231676     1.49360
Zn988      Zn  0.53506719  0.09666823  0.45810626     1.49110
Zn989      Zn  0.54377953  0.04787074  0.54932542     1.49480
O990        O  0.56288919  0.07968193  0.50710560    -1.83290
O991        O  0.63131028  0.09325623  0.48670026    -0.73920
O992        O  0.54738425  0.15376509  0.54582361    -0.73740
O993        O  0.54894841  0.09223230  0.38782848    -0.73260
O994        O  0.61067990  0.13360050  0.53123930    -0.73940
O995        O  0.58993153  0.06489565  0.39494907    -0.73540
O996        O  0.52647148  0.14381228  0.47123590    -0.74120
O997        O  0.50204628  0.04456326  0.53222325    -0.73510
O998        O  0.57604296  0.10120535  0.62609448    -0.74270
O999        O  0.99672788  0.07523203  0.46216687    -0.73660
O1000       O  0.54903267  0.05584225  0.62434317    -0.74120
O1001       O  0.56031757  0.00416324  0.53319298    -0.74030
O1002       O  0.59976302  0.00893557  0.48812511    -0.73820
C1003       C  0.63167409  0.12261597  0.50675476     0.77970
C1004       C  0.53097016  0.16227718  0.50938327     0.78460
C1005       C  0.57048696  0.07878190  0.36777637     0.77420
C1006       C  0.98670831  0.05579430  0.49570647     0.77790
C1007       C  0.56339533  0.07742826  0.64893570     0.78930
C1008       C  0.58093840  0.99082068  0.51010713     0.77980
C1009       C  0.58856259  0.08555926  0.78594431    -0.20470
C1010       C  0.56515521  0.07286147  0.81225258    -0.08510
C1011       C  0.54173043  0.06069835  0.78449718     0.30340
C1012       C  0.54172927  0.06146276  0.73145627    -0.20470
C1013       C  0.56470390  0.07516618  0.70503162    -0.08530
C1014       C  0.58824147  0.08717488  0.73279543     0.30350
F1015       F  0.61098851  0.10024856  0.70864500    -0.19050
H1016       H  0.60676629  0.09518889  0.80663091     0.18720
H1017       H  0.52334561  0.05209844  0.71099416     0.18720
F1018       F  0.51888930  0.04785116  0.80865863    -0.19040
C1019       C  0.58805465  0.05531366  0.28545911    -0.20470
C1020       C  0.57239136  0.07960839  0.31162060    -0.08510
C1021       C  0.55737346  0.10421115  0.28335052     0.30340
C1022       C  0.55782721  0.10418696  0.23047715    -0.20470
C1023       C  0.57255019  0.07930587  0.20446826    -0.08530
C1024       C  0.58782499  0.05484392  0.23216039     0.30350
F1025       F  0.60261692  0.03078219  0.20770204    -0.19050
H1026       H  0.59977022  0.03612867  0.30622910     0.18720
H1027       H  0.54582000  0.12312261  0.20964214     0.18720
F1028       F  0.54206721  0.12835498  0.30666674    -0.19040
C1029       C  0.97298400  0.22600396  0.50335019    -0.20470
C1030       C  0.98874280  0.25551787  0.50678108    -0.08510
C1031       C  0.51827706  0.25447609  0.51321055     0.30340
C1032       C  0.53206396  0.22367690  0.51615454    -0.20470
C1033       C  0.51640116  0.19413986  0.51108268    -0.08530
C1034       C  0.98683631  0.19525785  0.50468784     0.30350
F1035       F  0.97150655  0.16664707  0.49989029    -0.19050
H1036       H  0.95014616  0.22688387  0.49841239     0.18720
H1037       H  0.55492334  0.22283470  0.52069620     0.18720
F1038       F  0.53359198  0.28317624  0.51671689    -0.19040
C1039       C  0.96028176  0.38403534  0.77661369    -0.20470
C1040       C  0.93622899  0.37310145  0.80261171    -0.08510
C1041       C  0.91264507  0.36127812  0.77500472     0.30340
C1042       C  0.91335430  0.36033206  0.72189223    -0.20470
C1043       C  0.93754802  0.37121106  0.69599030    -0.08530
C1044       C  0.96110154  0.38288015  0.72386160     0.30350
F1045       F  0.98542445  0.39172436  0.70023354    -0.19050
H1046       H  0.97890478  0.39248770  0.79737868     0.18720
H1047       H  0.89498830  0.35133715  0.70097387     0.18720
F1048       F  0.88886907  0.35129764  0.79929886    -0.19040
C1049       C  0.91344471  0.37969886  0.22101192    -0.20470
C1050       C  0.93933850  0.37732067  0.19522687    -0.08510
C1051       C  0.96467527  0.37553563  0.22408854     0.30340
C1052       C  0.96395515  0.37511348  0.27702197    -0.20470
C1053       C  0.93811958  0.37667007  0.30291219    -0.08530
C1054       C  0.91276285  0.37939068  0.27428870     0.30350
F1055       F  0.88728144  0.38062973  0.29756004    -0.19050
H1056       H  0.89359131  0.38109003  0.19992722     0.18720
H1057       H  0.98388265  0.37351685  0.29786938     0.18720
F1058       F  0.99033254  0.37429115  0.20138478    -0.19040
C1059       C  0.97671180  0.22934467  0.97528909    -0.20470
C1060       C  0.98913715  0.25617124  0.00132603    -0.08510
C1061       C  0.51524239  0.25171611  0.02683741     0.30340
C1062       C  0.52850794  0.22061382  0.02664416    -0.20470
C1063       C  0.51602284  0.19370567  0.00087958    -0.08530
C1064       C  0.98997216  0.19819770  0.97514410     0.30350
F1065       F  0.97688858  0.17234447  0.95123524    -0.19050
H1066       H  0.95650225  0.23234921  0.95576895     0.18720
H1067       H  0.54869597  0.21765808  0.04625447     0.18720
F1068       F  0.52829766  0.27754978  0.05085601    -0.19040
C1069       C  0.71372541  0.32280126  0.72037827    -0.20470
C1070       C  0.68816147  0.31952012  0.69285052    -0.08510
C1071       C  0.66279685  0.31563523  0.72005674     0.30340
C1072       C  0.66319299  0.31589849  0.77341461    -0.20470
C1073       C  0.68878668  0.32009044  0.80073577    -0.08530
C1074       C  0.71415327  0.32306720  0.77331754     0.30350
F1075       F  0.73961517  0.32636275  0.79740057    -0.19050
H1076       H  0.73367360  0.32547233  0.70089743     0.18720
H1077       H  0.64335061  0.31351785  0.79329746     0.18720
F1078       F  0.63752078  0.31249404  0.69535855    -0.19040
C1079       C  0.67083976  0.35307396  0.21875046    -0.20470
C1080       C  0.68566756  0.32783199  0.19314514    -0.08510
C1081       C  0.69945674  0.30251153  0.22173484     0.30340
C1082       C  0.69895483  0.30305494  0.27450769    -0.20470
C1083       C  0.68494216  0.32882752  0.30023587    -0.08530
C1084       C  0.67042302  0.35364380  0.27180873     0.30350
F1085       F  0.65609658  0.37862827  0.29505332    -0.19050
H1086       H  0.65988993  0.37275130  0.19770740     0.18720
H1087       H  0.71044221  0.28366362  0.29525634     0.18720
F1088       F  0.71449823  0.27787177  0.19905094    -0.19040
C1089       C  0.72613966  0.47094312  0.47889410    -0.20470
C1090       C  0.73883660  0.44377891  0.50445826    -0.08510
C1091       C  0.76503144  0.44790162  0.52967382     0.30340
C1092       C  0.77844917  0.47888901  0.52858771    -0.20470
C1093       C  0.76597907  0.00585346  0.50214715    -0.08530
C1094       C  0.73952629  0.00187125  0.47782004     0.30350
F1095       F  0.72638120  0.02795083  0.45376179    -0.19050
H1096       H  0.70578778  0.46824654  0.45986163     0.18720
H1097       H  0.79888697  0.48159185  0.54730774     0.18720
F1098       F  0.77819500  0.42176266  0.55352907    -0.19040
C1099       C  0.83789207  0.10210414  0.77471205    -0.20470
C1100       C  0.82015997  0.12444140  0.80051728    -0.08510
C1101       C  0.80330095  0.14711962  0.77202479     0.30340
C1102       C  0.80380132  0.14681929  0.71914008    -0.20470
C1103       C  0.82086064  0.12385532  0.69322435    -0.08530
C1104       C  0.83832405  0.10176304  0.72161273     0.30350
F1105       F  0.85561162  0.07961338  0.69826511    -0.19050
H1106       H  0.85120323  0.08450727  0.79566068     0.18720
H1107       H  0.78995580  0.16396677  0.69843924     0.18720
F1108       F  0.78526373  0.16863346  0.79496079    -0.19040
C1109       C  0.80043070  0.10205366  0.21956995    -0.20470
C1110       C  0.81836931  0.12388727  0.19304346    -0.08510
C1111       C  0.83669633  0.14492725  0.22086582     0.30340
C1112       C  0.83658772  0.14428524  0.27414568    -0.20470
C1113       C  0.81821455  0.12276266  0.30050522    -0.08530
C1114       C  0.80036603  0.10130982  0.27245277     0.30350
F1115       F  0.78306956  0.07907220  0.29597733    -0.19050
H1116       H  0.78644829  0.08515519  0.19928030     0.18720
H1117       H  0.85050300  0.16107618  0.29476326     0.18720
F1118       F  0.85408098  0.16676315  0.19676676    -0.19040
C1119       C  0.72735869  0.47068694  0.01878519    -0.20470
C1120       C  0.73923912  0.44405302  0.99196377    -0.08510
C1121       C  0.76490361  0.44857115  0.96627313     0.30340
C1122       C  0.77844628  0.47947247  0.96762997    -0.20470
C1123       C  0.76666329  0.00602590  0.99480800    -0.08530
C1124       C  0.74087598  0.00154823  0.02015053     0.30350
F1125       F  0.72837591  0.02711162  0.04529781    -0.19050
H1126       H  0.70749004  0.46769184  0.03837525     0.18720
H1127       H  0.79836554  0.48246131  0.94821286     0.18720
F1128       F  0.77740266  0.42291742  0.94134913    -0.19040
C1129       C  0.84929933  0.80377809  0.00802738     0.03960
C1130       C  0.82142742  0.81655744  0.00892839    -0.12190
C1131       C  0.79829777  0.79449333  0.01115741     0.01460
C1132       C  0.80304449  0.76004526  0.01304566    -0.10710
C1133       C  0.83031862  0.74638802  0.00925102     0.03960
C1134       C  0.85359191  0.76836212  0.00768245    -0.10130
H1135       H  0.81772617  0.84335209  0.00676079     0.09550
H1136       H  0.78483325  0.74346920  0.01435111     0.07080
H1137       H  0.87475826  0.75804484  0.00452160     0.06930
C1138       C  0.84886133  0.80349857  0.48709835     0.03960
C1139       C  0.85318058  0.76806350  0.48664493    -0.12190
C1140       C  0.82988655  0.74608709  0.48487892     0.01460
C1141       C  0.80254821  0.75987099  0.48176654    -0.10710
C1142       C  0.79784913  0.79427671  0.48458398     0.03960
C1143       C  0.82099886  0.81629352  0.48688737    -0.10130
H1144       H  0.87440867  0.75772156  0.48946418     0.09550
H1145       H  0.78428579  0.74336914  0.48020671     0.07080
H1146       H  0.81734657  0.84303921  0.48970162     0.06930
Zn1147     Zn  0.79682956  0.65371567  0.95280438     1.49720
Zn1148     Zn  0.84671924  0.63834878  0.03550978     1.49360
Zn1149     Zn  0.78381875  0.60557640  0.04248554     1.49110
Zn1150     Zn  0.82464308  0.58410638  0.95438521     1.49480
O1151       O  0.81352018  0.62076819  0.99717428    -1.83290
O1152       O  0.81153262  0.69730393  0.97508673    -0.73920
O1153       O  0.83848182  0.63440185  0.11136879    -0.73740
O1154       O  0.74519957  0.62559802  0.02693639    -0.73260
O1155       O  0.85052475  0.69049587  0.02283451    -0.73940
O1156       O  0.75427937  0.65589580  0.95818142    -0.73540
O1157       O  0.79501820  0.61304699  0.11482292    -0.74120
O1158       O  0.79745283  0.54646410  0.96029474    -0.73510
O1159       O  0.88165776  0.60622608  0.02436781    -0.74270
O1160       O  0.77689157  0.55742324  0.03367396    -0.73660
O1161       O  0.86141479  0.56579126  0.97869788    -0.74120
O1162       O  0.82720188  0.59696997  0.88039981    -0.74030
O1163       O  0.80618941  0.64665807  0.87985433    -0.73820
C1164       C  0.83179908  0.70948612  0.00134833     0.77970
C1165       C  0.81730486  0.62405807  0.13676290     0.78460
C1166       C  0.73688845  0.64428377  0.99035887     0.77420
C1167       C  0.78118966  0.53827108  0.99636428     0.77790
C1168       C  0.88221816  0.57679172  0.00467747     0.78930
C1169       C  0.81802644  0.62273924  0.85651278     0.77980
Zn1170     Zn  0.79670578  0.65269808  0.53942034     1.49720
Zn1171     Zn  0.84640237  0.63796907  0.45894830     1.49360
Zn1172     Zn  0.82453336  0.58360675  0.54045658     1.49110
Zn1173     Zn  0.78376779  0.60457040  0.45005263     1.49480
O1174       O  0.81336972  0.62014977  0.49623033    -1.83290
O1175       O  0.81132523  0.69640677  0.51767373    -0.73920
O1176       O  0.88116228  0.60554667  0.47234675    -0.73740
O1177       O  0.82816723  0.59659616  0.61405351    -0.73260
O1178       O  0.85011079  0.69026716  0.47123890    -0.73940
O1179       O  0.80598134  0.64553592  0.61302763    -0.73540
O1180       O  0.86066907  0.56475015  0.51701259    -0.74120
O1181       O  0.77649364  0.55659620  0.46106910    -0.73510
O1182       O  0.83815435  0.63396495  0.38273495    -0.74270
O1183       O  0.79701508  0.54633839  0.53595119    -0.73660
O1184       O  0.79514684  0.61138785  0.37813327    -0.74120
O1185       O  0.74525622  0.62498890  0.46217702    -0.74030
O1186       O  0.75435310  0.65469931  0.53127144    -0.73820
C1187       C  0.83144733  0.70899014  0.49218572     0.77970
C1188       C  0.88151507  0.57588204  0.49205292     0.78460
C1189       C  0.81860545  0.62202510  0.63718180     0.77420
C1190       C  0.78066065  0.53790489  0.49961831     0.77790
C1191       C  0.81720006  0.62281922  0.35676492     0.78930
C1192       C  0.73701750  0.64349021  0.49814328     0.77980
C1193       C  0.65616635  0.64627051  0.99501611     0.03960
C1194       C  0.68404077  0.63350740  0.99291735    -0.12190
C1195       C  0.70708757  0.65548647  0.98749051     0.01460
C1196       C  0.70215710  0.68986038  0.98342762    -0.10710
C1197       C  0.67494702  0.70358719  0.98836643     0.03960
C1198       C  0.65180374  0.68165547  0.99338666    -0.10130
H1199       H  0.68782254  0.60678098  0.99641289     0.09550
H1200       H  0.72024060  0.70646276  0.97977215     0.07080
H1201       H  0.63071769  0.69202759  0.99751359     0.06930
C1202       C  0.65637386  0.64559659  0.50223147     0.03960
C1203       C  0.68415988  0.63288450  0.49814559    -0.12190
C1204       C  0.70736080  0.65487647  0.49975512     0.01460
C1205       C  0.70271839  0.68924622  0.50310915    -0.10710
C1206       C  0.67535393  0.70306158  0.50307752     0.03960
C1207       C  0.65208485  0.68103781  0.50421368    -0.10130
H1208       H  0.68778745  0.60609456  0.49627326     0.09550
H1209       H  0.72103862  0.70567390  0.50398414     0.07080
H1210       H  0.63082772  0.69133970  0.50520179     0.06930
Zn1211     Zn  0.72231137  0.84308038  0.95097842     1.49720
Zn1212     Zn  0.70846881  0.79655903  0.04219901     1.49360
Zn1213     Zn  0.68254480  0.86660798  0.03861069     1.49110
Zn1214     Zn  0.65893186  0.81179454  0.95909477     1.49480
O1215       O  0.69242913  0.82917925  0.99667943    -1.83290
O1216       O  0.76077612  0.82389164  0.96949538    -0.73920
O1217       O  0.69844831  0.80400210  0.11437988    -0.73740
O1218       O  0.70962259  0.90382673  0.02959079    -0.73260
O1219       O  0.75091097  0.79436731  0.03867183    -0.73940
O1220       O  0.72893753  0.89175385  0.95551554    -0.73540
O1221       O  0.68064159  0.85531642  0.11296590    -0.74120
O1222       O  0.62427486  0.84423364  0.97231435    -0.73510
O1223       O  0.69402014  0.75287309  0.02087916    -0.74270
O1224       O  0.64554897  0.88462538  0.01662253    -0.73660
O1225       O  0.65501680  0.75956713  0.97315059    -0.74120
O1226       O  0.66703970  0.81495728  0.88255544    -0.74030
O1227       O  0.71174084  0.83230867  0.87928737    -0.73820
C1228       C  0.76864046  0.80572960  0.00695885     0.77970
C1229       C  0.68809209  0.82900878  0.13726637     0.78460
C1230       C  0.72512377  0.91155349  0.99225169     0.77420
C1231       C  0.62413704  0.87356668  0.99247387     0.77790
C1232       C  0.67365243  0.74061089  0.99505364     0.78930
C1233       C  0.68912236  0.82241584  0.85718102     0.77980
Zn1234     Zn  0.70794034  0.79713014  0.45201277     1.49720
Zn1235     Zn  0.72232492  0.84204643  0.54397728     1.49360
Zn1236     Zn  0.68230329  0.86701756  0.45447609     1.49110
Zn1237     Zn  0.65877747  0.81115751  0.53297402     1.49480
O1238       O  0.69217984  0.82911377  0.49700809    -1.83290
O1239       O  0.75028332  0.79494103  0.45632786    -0.73920
O1240       O  0.72913034  0.89074690  0.53968446    -0.73740
O1241       O  0.68021547  0.85648491  0.37979703    -0.73260
O1242       O  0.76071445  0.82276788  0.52661977    -0.73940
O1243       O  0.69751302  0.80494472  0.37980627    -0.73540
O1244       O  0.70938886  0.90401577  0.46514228    -0.74120
O1245       O  0.62428450  0.84386032  0.51770312    -0.73510
O1246       O  0.71160029  0.83093560  0.61541279    -0.74270
O1247       O  0.64544251  0.88513053  0.47499944    -0.73660
O1248       O  0.66669756  0.81428590  0.60979994    -0.74120
O1249       O  0.65504488  0.75874143  0.51936522    -0.74030
O1250       O  0.69370719  0.75337718  0.47259124    -0.73820
C1251       C  0.76826288  0.80547350  0.48876776     0.77970
C1252       C  0.72500831  0.91116117  0.50314982     0.78460
C1253       C  0.68728711  0.83014432  0.35617622     0.77420
C1254       C  0.62409724  0.87356728  0.49801979     0.77790
C1255       C  0.68870996  0.82150147  0.63635211     0.78930
C1256       C  0.67368913  0.74033477  0.49769286     0.77980
C1257       C  0.90679777  0.55363690  0.01218101     0.03960
C1258       C  0.90238645  0.51832353  0.01058896    -0.12190
C1259       C  0.92545014  0.99603793  0.01471224     0.01460
C1260       C  0.95270160  0.50916927  0.02245976    -0.10710
C1261       C  0.95769462  0.54358358  0.02194379     0.03960
C1262       C  0.93469390  0.56598022  0.01706745    -0.10130
H1263       H  0.88131271  0.50829103  0.00431538     0.09550
H1264       H  0.97073705  0.49225291  0.02508469     0.07080
H1265       H  0.93857799  0.59272815  0.01550833     0.06930
C1266       C  0.90626491  0.55296813  0.48735246     0.03960
C1267       C  0.90214587  0.51753075  0.48917953    -0.12190
C1268       C  0.92555893  0.99561414  0.49210909     0.01460
C1269       C  0.95286959  0.50948102  0.49291034    -0.10710
C1270       C  0.95732273  0.54392620  0.49083596     0.03960
C1271       C  0.93405426  0.56582579  0.48672660    -0.10130
H1272       H  0.88093257  0.50720401  0.49023024     0.09550
H1273       H  0.97130128  0.49317179  0.49529096     0.07080
H1274       H  0.93753678  0.59266982  0.48643336     0.06930
Zn1275     Zn  0.93148095  0.83415000  0.95622119     1.49720
Zn1276     Zn  0.95805381  0.90424492  0.95470351     1.49360
Zn1277     Zn  0.90926265  0.88786540  0.03660021     1.49110
Zn1278     Zn  0.97266568  0.85665210  0.04518800     1.49480
O1279       O  0.94236187  0.87102098  0.99900518    -1.83290
O1280       O  0.92850399  0.84656513  0.88205820    -0.73920
O1281       O  0.94373336  0.94783023  0.97766895    -0.73740
O1282       O  0.87440253  0.85602157  0.02293212    -0.73260
O1283       O  0.94858225  0.89683221  0.88154776    -0.73940
O1284       O  0.89497511  0.81558335  0.97850916    -0.73540
O1285       O  0.90547554  0.94010764  0.02527393    -0.74120
O1286       O  0.96262070  0.86628133  0.11741073    -0.73510
O1287       O  0.00046672  0.90645297  0.95974003    -0.74270
O1288       O  0.91780211  0.88346446  0.11273051    -0.73660
O1289       O  0.51107353  0.87594978  0.02808819    -0.74120
O1290       O  0.97919474  0.80810755  0.03862689    -0.74030
O1291       O  0.95889318  0.79674651  0.96414304    -0.73820
C1292       C  0.93723553  0.87236696  0.85835312     0.77970
C1293       C  0.92384276  0.95945237  0.00458048     0.78460
C1294       C  0.87400358  0.82664895  0.00300989     0.77420
C1295       C  0.93992121  0.87574470  0.13881277     0.77790
C1296       C  0.51853632  0.89463634  0.99134387     0.78930
C1297       C  0.97493093  0.78867951  0.00140448     0.77980
Zn1298     Zn  0.93069497  0.83325271  0.54284681     1.49720
Zn1299     Zn  0.90902373  0.88792184  0.46104605     1.49360
Zn1300     Zn  0.95947535  0.90147386  0.54361571     1.49110
Zn1301     Zn  0.97169011  0.85412006  0.45364596     1.49480
O1302       O  0.94221422  0.86962650  0.49915563    -1.83290
O1303       O  0.89445261  0.81486639  0.51869886    -0.73920
O1304       O  0.90554721  0.94011412  0.47498325    -0.73740
O1305       O  0.95205988  0.89287896  0.61688193    -0.73260
O1306       O  0.87407572  0.85585302  0.47316215    -0.73940
O1307       O  0.92745954  0.84563364  0.61661391    -0.73540
O1308       O  0.94404961  0.94534185  0.52416434    -0.74120
O1309       O  0.51013875  0.87433702  0.46688869    -0.73510
O1310       O  0.91718996  0.88469399  0.38472099    -0.74270
O1311       O  0.00156549  0.90442951  0.53534206    -0.73660
O1312       O  0.96044415  0.86256163  0.38131357    -0.74120
O1313       O  0.97922447  0.80603437  0.46493465    -0.74030
O1314       O  0.95775050  0.79569900  0.53825584    -0.73820
C1315       C  0.87358399  0.82625821  0.49308600     0.77970
C1316       C  0.92397771  0.95841766  0.49808235     0.78460
C1317       C  0.93877864  0.86993831  0.64026302     0.77420
C1318       C  0.51860159  0.89318250  0.50255048     0.77790
C1319       C  0.93841659  0.87455772  0.35929387     0.78930
C1320       C  0.97437010  0.78738905  0.50304255     0.77980
C1321       C  0.59921026  0.89645099  0.98863129     0.03960
C1322       C  0.57133655  0.88374586  0.98790596    -0.12190
C1323       C  0.54812439  0.90590568  0.98778267     0.01460
C1324       C  0.55278428  0.94037570  0.98794941    -0.10710
C1325       C  0.58013481  0.95385820  0.99140728     0.03960
C1326       C  0.60343768  0.93182754  0.99070982    -0.10130
H1327       H  0.56772704  0.85693145  0.98861100     0.09550
H1328       H  0.53454316  0.95702269  0.98828761     0.07080
H1329       H  0.62465186  0.94205318  0.99368543     0.06930
C1330       C  0.59915045  0.89626393  0.50156649     0.03960
C1331       C  0.57144771  0.88317994  0.50165724    -0.12190
C1332       C  0.54809913  0.90492353  0.50393992     0.01460
C1333       C  0.55241732  0.93935213  0.50670500    -0.10710
C1334       C  0.57962840  0.95347617  0.50618782     0.03960
C1335       C  0.60311071  0.93175085  0.50276783    -0.10130
H1336       H  0.56806275  0.85636396  0.49954629     0.09550
H1337       H  0.53388976  0.95550474  0.50780774     0.07080
H1338       H  0.62427033  0.94225657  0.50240390     0.06930
Zn1339     Zn  0.59610320  0.56231394  0.96957277     1.49720
Zn1340     Zn  0.57372465  0.61660387  0.04918495     1.49360
Zn1341     Zn  0.53245014  0.59203107  0.96201529     1.49110
Zn1342     Zn  0.54869003  0.54557090  0.05400309     1.49480
O1343       O  0.56324915  0.57884894  0.00805207    -1.83290
O1344       O  0.63100795  0.59390960  0.98258028    -0.73920
O1345       O  0.54654749  0.65387931  0.03898307    -0.73740
O1346       O  0.54145100  0.58137863  0.88976912    -0.73260
O1347       O  0.61071744  0.63471438  0.02671491    -0.73940
O1348       O  0.58724174  0.56784979  0.89388369    -0.73540
O1349       O  0.52525175  0.64064649  0.96623399    -0.74120
O1350       O  0.50560293  0.54340217  0.05102678    -0.73510
O1351       O  0.57534800  0.60544595  0.12384873    -0.74270
O1352       O  0.99483800  0.57249123  0.98119539    -0.73660
O1353       O  0.56136405  0.55232926  0.12684705    -0.74120
O1354       O  0.56253551  0.50218436  0.02933881    -0.74030
O1355       O  0.59993564  0.50989370  0.97968081    -0.73820
C1356       C  0.63154955  0.62342900  0.00192334     0.77970
C1357       C  0.53004592  0.66105502  0.00199578     0.78460
C1358       C  0.56461597  0.57389546  0.86828093     0.77420
C1359       C  0.98744136  0.55456404  0.01878531     0.77790
C1360       C  0.57022607  0.57871002  0.14873744     0.78930
C1361       C  0.58190322  0.49052647  0.00126539     0.77980
Zn1362     Zn  0.59655265  0.56111403  0.47227120     1.49720
Zn1363     Zn  0.57395218  0.61535700  0.55231676     1.49360
Zn1364     Zn  0.53506719  0.59666823  0.45810626     1.49110
Zn1365     Zn  0.54377953  0.54787074  0.54932542     1.49480
O1366       O  0.56288919  0.57968193  0.50710560    -1.83290
O1367       O  0.63131028  0.59325623  0.48670027    -0.73920
O1368       O  0.54738425  0.65376508  0.54582361    -0.73740
O1369       O  0.54894841  0.59223230  0.38782848    -0.73260
O1370       O  0.61067990  0.63360050  0.53123930    -0.73940
O1371       O  0.58993153  0.56489565  0.39494908    -0.73540
O1372       O  0.52647148  0.64381228  0.47123590    -0.74120
O1373       O  0.50204628  0.54456326  0.53222324    -0.73510
O1374       O  0.57604296  0.60120535  0.62609448    -0.74270
O1375       O  0.99672788  0.57523203  0.46216686    -0.73660
O1376       O  0.54903267  0.55584225  0.62434317    -0.74120
O1377       O  0.56031757  0.50416324  0.53319298    -0.74030
O1378       O  0.59976302  0.50893557  0.48812511    -0.73820
C1379       C  0.63167409  0.62261597  0.50675477     0.77970
C1380       C  0.53097015  0.66227718  0.50938327     0.78460
C1381       C  0.57048697  0.57878190  0.36777637     0.77420
C1382       C  0.98670831  0.55579430  0.49570647     0.77790
C1383       C  0.56339533  0.57742826  0.64893570     0.78930
C1384       C  0.58093840  0.49082068  0.51010713     0.77980
C1385       C  0.58856259  0.58555926  0.78594431    -0.20470
C1386       C  0.56515521  0.57286147  0.81225258    -0.08510
C1387       C  0.54173043  0.56069835  0.78449718     0.30340
C1388       C  0.54172927  0.56146276  0.73145626    -0.20470
C1389       C  0.56470390  0.57516618  0.70503162    -0.08530
C1390       C  0.58824147  0.58717487  0.73279543     0.30350
F1391       F  0.61098851  0.60024855  0.70864500    -0.19050
H1392       H  0.60676629  0.59518888  0.80663091     0.18720
H1393       H  0.52334561  0.55209844  0.71099416     0.18720
F1394       F  0.51888930  0.54785116  0.80865863    -0.19040
C1395       C  0.58805463  0.55531364  0.28545911    -0.20470
C1396       C  0.57239137  0.57960839  0.31162060    -0.08510
C1397       C  0.55737349  0.60421117  0.28335052     0.30340
C1398       C  0.55782724  0.60418698  0.23047715    -0.20470
C1399       C  0.57255020  0.57930587  0.20446826    -0.08530
C1400       C  0.58782497  0.55484391  0.23216039     0.30350
F1401       F  0.60261688  0.53078215  0.20770204    -0.19050
H1402       H  0.59977019  0.53612864  0.30622910     0.18720
H1403       H  0.54582004  0.62312265  0.20964214     0.18720
F1404       F  0.54206727  0.62835503  0.30666674    -0.19040
C1405       C  0.97298400  0.72600396  0.50335019    -0.20470
C1406       C  0.98874280  0.75551787  0.50678108    -0.08510
C1407       C  0.51827706  0.75447609  0.51321056     0.30340
C1408       C  0.53206396  0.72367690  0.51615455    -0.20470
C1409       C  0.51640116  0.69413986  0.51108268    -0.08530
C1410       C  0.98683630  0.69525785  0.50468784     0.30350
F1411       F  0.97150654  0.66664706  0.49989030    -0.19050
H1412       H  0.95014616  0.72688387  0.49841238     0.18720
H1413       H  0.55492334  0.72283470  0.52069621     0.18720
F1414       F  0.53359198  0.78317624  0.51671691    -0.19040
C1415       C  0.96028170  0.88403553  0.77661369    -0.20470
C1416       C  0.93622897  0.87310147  0.80261171    -0.08510
C1417       C  0.91264511  0.86127799  0.77500473     0.30340
C1418       C  0.91335434  0.86033193  0.72189223    -0.20470
C1419       C  0.93754801  0.87121109  0.69599030    -0.08530
C1420       C  0.96110148  0.88288033  0.72386159     0.30350
F1421       F  0.98542435  0.89172470  0.70023354    -0.19050
H1422       H  0.97890467  0.89248800  0.79737867     0.18720
H1423       H  0.89498839  0.85133690  0.70097388     0.18720
F1424       F  0.88886916  0.85129735  0.79929886    -0.19040
C1425       C  0.91344472  0.87969887  0.22101192    -0.20470
C1426       C  0.93933850  0.87732067  0.19522687    -0.08510
C1427       C  0.96467527  0.87553562  0.22408854     0.30340
C1428       C  0.96395515  0.87511347  0.27702197    -0.20470
C1429       C  0.93811958  0.87667007  0.30291219    -0.08530
C1430       C  0.91276285  0.87939068  0.27428870     0.30350
F1431       F  0.88728144  0.88062975  0.29756004    -0.19050
H1432       H  0.89359132  0.88109005  0.19992722     0.18720
H1433       H  0.98388265  0.87351682  0.29786938     0.18720
F1434       F  0.99033254  0.87429112  0.20138478    -0.19040
C1435       C  0.97671180  0.72934467  0.97528907    -0.20470
C1436       C  0.98913715  0.75617124  0.00132601    -0.08510
C1437       C  0.51524239  0.75171611  0.02683739     0.30340
C1438       C  0.52850794  0.72061383  0.02664414    -0.20470
C1439       C  0.51602284  0.69370567  0.00087957    -0.08530
C1440       C  0.98997217  0.69819770  0.97514407     0.30350
F1441       F  0.97688858  0.67234448  0.95123522    -0.19050
H1442       H  0.95650225  0.73234921  0.95576893     0.18720
H1443       H  0.54869597  0.71765808  0.04625445     0.18720
F1444       F  0.52829766  0.77754978  0.05085599    -0.19040
C1445       C  0.71372541  0.82280126  0.72037827    -0.20470
C1446       C  0.68816147  0.81952012  0.69285053    -0.08510
C1447       C  0.66279685  0.81563523  0.72005674     0.30340
C1448       C  0.66319299  0.81589849  0.77341461    -0.20470
C1449       C  0.68878668  0.82009044  0.80073577    -0.08530
C1450       C  0.71415327  0.82306721  0.77331754     0.30350
F1451       F  0.73961517  0.82636275  0.79740057    -0.19050
H1452       H  0.73367360  0.82547233  0.70089743     0.18720
H1453       H  0.64335061  0.81351785  0.79329747     0.18720
F1454       F  0.63752079  0.81249404  0.69535855    -0.19040
C1455       C  0.67083976  0.85307396  0.21875046    -0.20470
C1456       C  0.68566756  0.82783199  0.19314514    -0.08510
C1457       C  0.69945674  0.80251153  0.22173484     0.30340
C1458       C  0.69895483  0.80305494  0.27450769    -0.20470
C1459       C  0.68494216  0.82882752  0.30023587    -0.08530
C1460       C  0.67042302  0.85364380  0.27180873     0.30350
F1461       F  0.65609658  0.87862827  0.29505332    -0.19050
H1462       H  0.65988993  0.87275130  0.19770740     0.18720
H1463       H  0.71044221  0.78366362  0.29525634     0.18720
F1464       F  0.71449823  0.77787176  0.19905094    -0.19040
C1465       C  0.72613966  0.97094311  0.47889409    -0.20470
C1466       C  0.73883660  0.94377891  0.50445825    -0.08510
C1467       C  0.76503144  0.94790162  0.52967381     0.30340
C1468       C  0.77844917  0.97888901  0.52858770    -0.20470
C1469       C  0.76597907  0.50585346  0.50214716    -0.08530
C1470       C  0.73952629  0.50187125  0.47782005     0.30350
F1471       F  0.72638120  0.52795083  0.45376180    -0.19050
H1472       H  0.70578778  0.96824653  0.45986162     0.18720
H1473       H  0.79888697  0.98159185  0.54730773     0.18720
F1474       F  0.77819500  0.92176266  0.55352907    -0.19040
C1475       C  0.83789207  0.60210414  0.77471205    -0.20470
C1476       C  0.82015997  0.62444140  0.80051729    -0.08510
C1477       C  0.80330095  0.64711962  0.77202479     0.30340
C1478       C  0.80380132  0.64681929  0.71914009    -0.20470
C1479       C  0.82086065  0.62385532  0.69322435    -0.08530
C1480       C  0.83832406  0.60176305  0.72161273     0.30350
F1481       F  0.85561162  0.57961338  0.69826511    -0.19050
H1482       H  0.85120323  0.58450727  0.79566068     0.18720
H1483       H  0.78995580  0.66396678  0.69843925     0.18720
F1484       F  0.78526373  0.66863346  0.79496080    -0.19040
C1485       C  0.80043069  0.60205367  0.21956995    -0.20470
C1486       C  0.81836931  0.62388727  0.19304346    -0.08510
C1487       C  0.83669633  0.64492724  0.22086582     0.30340
C1488       C  0.83658772  0.64428523  0.27414568    -0.20470
C1489       C  0.81821455  0.62276266  0.30050522    -0.08530
C1490       C  0.80036602  0.60130983  0.27245277     0.30350
F1491       F  0.78306954  0.57907221  0.29597734    -0.19050
H1492       H  0.78644827  0.58515521  0.19928030     0.18720
H1493       H  0.85050300  0.66107617  0.29476327     0.18720
F1494       F  0.85408099  0.66676313  0.19676676    -0.19040
C1495       C  0.72735869  0.97068694  0.01878519    -0.20470
C1496       C  0.73923912  0.94405301  0.99196377    -0.08510
C1497       C  0.76490361  0.94857115  0.96627313     0.30340
C1498       C  0.77844628  0.97947247  0.96762997    -0.20470
C1499       C  0.76666329  0.50602590  0.99480799    -0.08530
C1500       C  0.74087598  0.50154823  0.02015053     0.30350
F1501       F  0.72837591  0.52711162  0.04529780    -0.19050
H1502       H  0.70749004  0.96769184  0.03837525     0.18720
H1503       H  0.79836554  0.98246131  0.94821286     0.18720
F1504       F  0.77740266  0.92291742  0.94134913    -0.19040
loop_ 
_geom_bond_atom_site_label_1 
_geom_bond_atom_site_label_2 
_geom_bond_distance 
_geom_bond_site_symmetry_2 
_ccdc_geom_bond_type 
C1            C2   1.409       .  A
C1            C6   1.427       .  A
C1          C166   1.488       .  S
C2            C3   1.405       .  A
C2            H7   1.084       .  S
C3            C4   1.392       .  A
C3          C100   1.470       .  S
C4            C5   1.401       .  A
C4            H8   1.086       .  S
C5            C6   1.407       .  A
C5           C36   1.490       .  S
C6            H9   1.083       .  S
C10          C11   1.428       .  A
C10          C15   1.408       .  A
C10         C187   1.487       .  S
C11          C12   1.407       .  A
C11          H16   1.083       .  S
C12          C13   1.402       .  A
C12          C59   1.492       .  S
C13          C14   1.392       .  A
C13          H17   1.086       .  S
C14          C15   1.404       .  A
C14         C123   1.470       .  S
C15          H18   1.084       .  S
Zn19         O23   1.913       .  S
Zn19         O24   1.965       .  S
Zn19         O28   2.015       .  S
Zn19         O35   2.000       .  S
Zn20         O23   1.984   1_554  S
Zn20         O25   2.046       .  S
Zn20         O27   2.113       .  S
Zn20         O31   2.110       .  S
Zn21         O23   1.947   1_554  S
Zn21         O26   2.023       .  S
Zn21         O29   1.996       .  S
Zn21         O32   1.964       .  S
Zn22         O23   1.930       .  S
Zn22         O30   1.983       .  S
Zn22         O33   1.977       .  S
Zn22         O34   2.017       .  S
O24          C36   1.272   1_556  A
O25          C37   1.277       .  A
O26          C38   1.271   1_554  A
O27          C36   1.285       .  A
O28          C38   1.273       .  A
O29          C37   1.273       .  A
O30          C39   1.270       .  A
O31          C40   1.288       .  A
O32          C39   1.268   1_554  A
O33          C40   1.270   1_556  A
O34          C41   1.273       .  A
O35          C41   1.271       .  A
C37         C358   1.483       .  S
C38          C67   1.475       .  S
C39         C371   1.459       .  S
C40         C129   1.491       .  S
C41         C348   1.481       .  S
Zn42         O46   1.908       .  S
Zn42         O47   1.960       .  S
Zn42         O51   2.000       .  S
Zn42         O58   2.007       .  S
Zn43         O46   1.983       .  S
Zn43         O48   2.110       .  S
Zn43         O50   2.121       .  S
Zn43         O54   2.048       .  S
Zn44         O46   1.927       .  S
Zn44         O49   2.016       .  S
Zn44         O52   1.970       .  S
Zn44         O55   1.979       .  S
Zn45         O46   1.946       .  S
Zn45         O53   1.965       .  S
Zn45         O56   1.993       .  S
Zn45         O57   2.019       .  S
O47          C59   1.272       .  A
O48          C60   1.288       .  A
O49          C61   1.272       .  A
O50          C59   1.286       .  A
O51          C61   1.272       .  A
O52          C60   1.269       .  A
O53          C62   1.268       .  A
O54          C63   1.277       .  A
O55          C62   1.269       .  A
O56          C63   1.273       .  A
O57          C64   1.270       .  A
O58          C64   1.272       .  A
C60         C138   1.488       .  S
C61         C351   1.481       .  S
C62         C341   1.457       .  S
C63         C361   1.484       .  S
C64          C76   1.471       .  S
C65          C66   1.410       .  A
C65          C70   1.426       .  A
C65         C228   1.489   1_556  S
C66          C67   1.406       .  A
C66          H71   1.084       .  S
C67          C68   1.393       .  A
C68          C69   1.402       .  A
C68          H72   1.086       .  S
C69          C70   1.407       .  A
C69         C104   1.490       .  S
C70          H73   1.083       .  S
C74          C75   1.410       .  A
C74          C79   1.429       .  A
C74         C251   1.489       .  S
C75          C76   1.404       .  A
C75          H80   1.083       .  S
C76          C77   1.392       .  A
C77          C78   1.402       .  A
C77          H81   1.086       .  S
C78          C79   1.408       .  A
C78         C128   1.494       .  S
C79          H82   1.083       .  S
Zn83         O87   1.944       .  S
Zn83         O88   2.020       .  S
Zn83         O92   1.972       .  S
Zn83         O99   1.997       .  S
Zn84         O87   1.911   1_554  S
Zn84         O89   1.990       .  S
Zn84         O91   2.007       .  S
Zn84         O95   1.956       .  S
Zn85         O87   1.924   1_554  S
Zn85         O90   1.975       .  S
Zn85         O93   2.010       .  S
Zn85         O96   1.964       .  S
Zn86         O87   1.983       .  S
Zn86         O94   2.116       .  S
Zn86         O97   2.122       .  S
Zn86         O98   2.060       .  S
O88         C100   1.271   1_556  A
O89         C101   1.270       .  A
O90         C102   1.270   1_554  A
O91         C100   1.271       .  A
O92         C102   1.268       .  A
O93         C101   1.271       .  A
O94         C103   1.289       .  A
O95         C104   1.271   1_554  A
O96         C103   1.268   1_554  A
O97         C104   1.286       .  A
O98         C105   1.279       .  A
O99         C105   1.273       .  A
C101        C328   1.479       .  S
C102        C368   1.459       .  S
C103        C193   1.489       .  S
C105        C321   1.491       .  S
Zn106       O110   1.905       .  S
Zn106       O111   2.000       .  S
Zn106       O115   1.981       .  S
Zn106       O122   1.947       .  S
Zn107       O110   1.946       .  S
Zn107       O112   1.972       .  S
Zn107       O114   2.025       .  S
Zn107       O118   2.002       .  S
Zn108       O110   1.927       .  S
Zn108       O113   2.016       .  S
Zn108       O116   1.973       .  S
Zn108       O119   1.965       .  S
Zn109       O110   1.981       .  S
Zn109       O117   2.115       .  S
Zn109       O120   2.058       .  S
Zn109       O121   2.131       .  S
O111        C123   1.270       .  A
O112        C124   1.269       .  A
O113        C125   1.272       .  A
O114        C123   1.271       .  A
O115        C125   1.269       .  A
O116        C124   1.270       .  A
O117        C126   1.290       .  A
O118        C127   1.275       .  A
O119        C126   1.268       .  A
O120        C127   1.279       .  A
O121        C128   1.287       .  A
O122        C128   1.270       .  A
C124        C338   1.457       .  S
C125        C331   1.478       .  S
C126        C202   1.487       .  S
C127        C318   1.491       .  S
C129        C130   1.425       .  A
C129        C134   1.410       .  A
C130        C507   1.406   1_545  A
C130        H135   1.083       .  S
C131        C506   1.406       .  A
C131        C508   1.402       .  A
C131        C165   1.488       .  S
C132        C133   1.393       .  A
C132        C507   1.402   1_545  A
C132        H136   1.086   1_545  S
C133        C134   1.408       .  A
C133        C231   1.474       .  S
C134        H137   1.084       .  S
C138        C139   1.428       .  A
C138        C143   1.409       .  A
C139        C516   1.408   1_545  A
C139        H144   1.083       .  S
C140        C515   1.408       .  A
C140        C517   1.403       .  A
C140        C188   1.493       .  S
C141        C142   1.391       .  A
C141        C516   1.403   1_545  A
C141        H145   1.085   1_545  S
C142        C143   1.404       .  A
C142        C254   1.470       .  S
C143        H146   1.084       .  S
Zn147       O151   1.927       .  S
Zn147       O152   2.015       .  S
Zn147       O156   1.970       .  S
Zn147       O163   1.980       .  S
Zn148       O151   1.915       .  S
Zn148       O153   1.967       .  S
Zn148       O155   1.997       .  S
Zn148       O159   2.005       .  S
Zn149       O151   1.979   1_554  S
Zn149       O154   2.109       .  S
Zn149       O157   2.110       .  S
Zn149       O160   2.047       .  S
Zn150       O151   1.947   1_554  S
Zn150       O158   2.007       .  S
Zn150       O162   1.969       .  S
Zn150       O913   2.024       .  S
O152        C164   1.272       .  A
O153        C165   1.272   1_556  A
O154        C166   1.288       .  A
O155        C164   1.271       .  A
O156        C166   1.268   1_556  A
O157        C165   1.285       .  A
O158        C167   1.274       .  A
O159        C920   1.271       .  A
O160        C167   1.277       .  A
O161       Zn902   2.024   1_455  S
O161        C168   1.271   1_554  A
O162        C169   1.269       .  A
O163        C169   1.270   1_556  A
C164        C288   1.469       .  S
C167        C298   1.489       .  S
C168        C195   1.471       .  S
C168        O911   1.271       .  A
C169        C308   1.458       .  S
Zn170       O174   1.928       .  S
Zn170       O175   1.962       .  S
Zn170       O179   2.017       .  S
Zn170       O186   1.971       .  S
Zn171       O174   1.983       .  S
Zn171       O176   2.123       .  S
Zn171       O178   2.114       .  S
Zn171       O182   2.057       .  S
Zn172       O174   1.911       .  S
Zn172       O177   1.993       .  S
Zn172       O180   1.956       .  S
Zn172       O183   2.003       .  S
Zn173       O174   1.950       .  S
Zn173       O184   1.997       .  S
Zn173       O185   1.969       .  S
Zn173       O933   2.013       .  S
O175        C187   1.267       .  A
O176        C188   1.286       .  A
O177        C189   1.270       .  A
O178        C187   1.288       .  A
O179        C189   1.271       .  A
O180        C188   1.271       .  A
O181       Zn925   2.013   1_455  S
O181        C190   1.269       .  A
O182        C191   1.278       .  A
O183        C942   1.271       .  A
O184        C191   1.274       .  A
O185        C192   1.268       .  A
O186        C192   1.268       .  A
C189        C291   1.471       .  S
C190        C204   1.469       .  S
C190        O935   1.271       .  A
C191        C301   1.487       .  S
C192        C278   1.441       .  S
C193        C194   1.410       .  A
C193        C198   1.427       .  A
C194        C195   1.405       .  A
C194        H199   1.083       .  S
C195        C196   1.393       .  A
C196        C197   1.401       .  A
C196        H200   1.086       .  S
C197        C198   1.406       .  A
C197        C609   1.490   1_556  S
C198        H201   1.083       .  S
C202        C203   1.408       .  A
C202        C207   1.429       .  A
C203        C204   1.402       .  A
C203        H208   1.084       .  S
C204        C205   1.391       .  A
C205        C206   1.403       .  A
C205        H209   1.085       .  S
C206        C207   1.409       .  A
C206        C632   1.495       .  S
C207        H210   1.083       .  S
Zn211       O215   1.978   1_556  S
Zn211       O216   2.102       .  S
Zn211       O220   2.042       .  S
Zn211       O227   2.113       .  S
Zn212       O215   1.924       .  S
Zn212       O217   1.975       .  S
Zn212       O219   1.985       .  S
Zn212       O223   2.014       .  S
Zn213       O215   1.949   1_556  S
Zn213       O218   2.004       .  S
Zn213       O221   1.972       .  S
Zn213       O976   2.008   1_455  S
Zn214       O215   1.923       .  S
Zn214       O222   2.034       .  S
Zn214       O225   2.023       .  S
Zn214       O226   1.967       .  S
O216        C228   1.287   1_556  A
O217        C229   1.270       .  A
O218        C230   1.273       .  A
O219        C228   1.270       .  A
O220        C230   1.276       .  A
O221        C229   1.268   1_556  A
O222        C983   1.275   1_455  A
O223        C232   1.273       .  A
O224       Zn965   2.008       .  S
O224        C231   1.270   1_556  A
O225        C232   1.273       .  A
O226        C233   1.272   1_545  A
O227        C233   1.285   1_546  A
C229        C311   1.459       .  S
C230        C258   1.478       .  S
C231        O974   1.275       .  A
C232        C271   1.471       .  S
C233        C573   1.490   1_554  S
Zn234       O238   1.989       .  S
Zn234       O239   2.116       .  S
Zn234       O243   2.061       .  S
Zn234       O250   2.124       .  S
Zn235       O238   1.931       .  S
Zn235       O240   1.982       .  S
Zn235       O242   1.965       .  S
Zn235       O246   2.021       .  S
Zn236       O238   1.945       .  S
Zn236       O241   1.981       .  S
Zn236       O244   1.957       .  S
Zn236       O999   2.005   1_455  S
Zn237       O238   1.915       .  S
Zn237       O245   2.018       .  S
Zn237       O248   2.016       .  S
Zn237       O249   1.960       .  S
O239        C251   1.289       .  A
O240        C252   1.269       .  A
O241        C253   1.271       .  A
O242        C251   1.268       .  A
O243        C253   1.278       .  A
O244        C252   1.267       .  A
O245       C1006   1.274   1_455  A
O246        C255   1.273       .  A
O247       Zn988   2.005       .  S
O247        C254   1.268       .  A
O248        C255   1.273       .  A
O249        C256   1.272   1_545  A
O250        C256   1.287   1_545  A
C252        C281   1.445       .  S
C253        C268   1.484       .  S
C254        O997   1.274       .  A
C255        C261   1.480       .  S
C256        C582   1.495       .  S
C257        C258   1.404       .  A
C257        C262   1.401       .  A
C257        H264   1.083       .  S
C258        C259   1.406       .  A
C259        C260   1.398       .  A
C259        F266   1.358       .  S
C260        C261   1.405       .  A
C260        H265   1.084       .  S
C261        C262   1.408       .  A
C262        F263   1.357       .  S
C267        C268   1.407       .  A
C267        C272   1.404       .  A
C267        H274   1.083       .  S
C268        C269   1.411       .  A
C269        C270   1.393       .  A
C269        F276   1.358       .  S
C270        C271   1.399       .  A
C270        H275   1.084       .  S
C271        C272   1.405       .  A
C272        F273   1.357       .  S
C277        C278   1.396       .  A
C277        C282   1.388       .  A
C277        H284   1.084       .  S
C278       C1031   1.401       .  A
C279        C280   1.390       .  A
C279       C1030   1.401   1_455  A
C279        F286   1.358       .  S
C280        C281   1.398       .  A
C280        H285   1.083       .  S
C281       C1034   1.403   1_455  A
C282       C1033   1.403       .  A
C282        F283   1.358       .  S
C287        C288   1.401       .  A
C287        C292   1.392       .  A
C287        H294   1.084       .  S
C288        C289   1.405       .  A
C289        C290   1.401       .  A
C289        F296   1.357       .  S
C290        C291   1.405       .  A
C290        H295   1.084       .  S
C291        C292   1.406       .  A
C292        F293   1.358       .  S
C297        C298   1.408       .  A
C297        C302   1.404       .  A
C297        H304   1.083       .  S
C298        C299   1.409       .  A
C299        C300   1.395       .  A
C299        F306   1.358       .  S
C300        C301   1.406       .  A
C300        H305   1.084       .  S
C301        C302   1.409       .  A
C302        F303   1.357       .  S
C307        C308   1.401   1_556  A
C307        C312   1.390       .  A
C307        H314   1.083       .  S
C308       C1061   1.405       .  A
C309        C310   1.388       .  A
C309       C1060   1.405   1_455  A
C309        F316   1.358       .  S
C310        C311   1.401       .  A
C310        H315   1.083       .  S
C311       C1064   1.406   1_454  A
C312       C1063   1.406   1_556  A
C312        F313   1.358       .  S
C317        C318   1.406       .  A
C317        C322   1.395       .  A
C317        H324   1.083       .  S
C318        C319   1.411       .  A
C319        C320   1.406       .  A
C319        F326   1.357       .  S
C320        C321   1.408       .  A
C320        H325   1.082       .  S
C321        C322   1.410       .  A
C322        F323   1.358       .  S
C327        C328   1.406       .  A
C327        C332   1.399       .  A
C327        H334   1.083       .  S
C328        C329   1.408       .  A
C329        C330   1.391       .  A
C329        F336   1.358       .  S
C330        C331   1.405       .  A
C330        H335   1.084       .  S
C331        C332   1.408       .  A
C332        F333   1.357       .  S
C337        C338   1.400       .  A
C337        C718   1.387       .  A
C337        H344   1.083       .  S
C338        C339   1.405       .  A
C339        C340   1.390       .  A
C339        F346   1.358       .  S
C340        C717   1.401       .  A
C340        H345   1.083       .  S
C341        C342   1.405       .  A
C341        C716   1.401   1_545  A
C342        C713   1.387   1_545  A
C342        F343   1.358       .  S
C347        C348   1.406       .  A
C347        C352   1.400       .  A
C347        H354   1.084       .  S
C348        C349   1.409       .  A
C349        C350   1.394       .  A
C349        F356   1.358       .  S
C350        C351   1.405       .  A
C350        H355   1.084       .  S
C351        C352   1.409       .  A
C352        F353   1.357       .  S
C357        C358   1.404       .  A
C357        C362   1.393       .  A
C357        H364   1.083       .  S
C358        C359   1.409       .  A
C359        C360   1.404       .  A
C359        F366   1.357       .  S
C360        C361   1.407       .  A
C360        H365   1.083       .  S
C361        C362   1.408       .  A
C362        F363   1.358       .  S
C367        C368   1.401   1_554  A
C367        C748   1.388       .  A
C367        H374   1.082       .  S
C368        C369   1.406       .  A
C369        C370   1.390       .  A
C369        F376   1.358       .  S
C370        C747   1.401       .  A
C370        H375   1.082       .  S
C371        C372   1.406   1_556  A
C371        C746   1.401   1_545  A
C372        C743   1.388   1_545  A
C372        F373   1.358       .  S
C377        C378   1.409       .  A
C377        C382   1.427       .  A
C377        C542   1.488       .  S
C378        C379   1.405       .  A
C378        H383   1.084       .  S
C379        C380   1.392       .  A
C379        C476   1.470       .  S
C380        C381   1.401       .  A
C380        H384   1.086       .  S
C381        C382   1.407       .  A
C381        C412   1.490       .  S
C382        H385   1.083       .  S
C386        C387   1.428       .  A
C386        C391   1.408       .  A
C386        C563   1.487       .  S
C387        C388   1.407       .  A
C387        H392   1.083       .  S
C388        C389   1.402       .  A
C388        C435   1.492       .  S
C389        C390   1.392       .  A
C389        H393   1.086       .  S
C390        C391   1.404       .  A
C390        C499   1.470       .  S
C391        H394   1.084       .  S
Zn395       O399   1.913       .  S
Zn395       O400   1.965       .  S
Zn395       O404   2.015       .  S
Zn395       O411   2.000       .  S
Zn396       O399   1.984   1_554  S
Zn396       O401   2.046       .  S
Zn396       O403   2.113       .  S
Zn396       O407   2.110       .  S
Zn397       O399   1.947   1_554  S
Zn397       O402   2.023       .  S
Zn397       O405   1.996       .  S
Zn397       O408   1.964       .  S
Zn398       O399   1.930       .  S
Zn398       O406   1.983       .  S
Zn398       O409   1.977       .  S
Zn398       O410   2.017       .  S
O400        C412   1.272   1_556  A
O401        C413   1.277       .  A
O402        C414   1.271   1_554  A
O403        C412   1.285       .  A
O404        C414   1.273       .  A
O405        C413   1.273       .  A
O406        C415   1.270       .  A
O407        C416   1.288       .  A
O408        C415   1.268   1_554  A
O409        C416   1.270   1_556  A
O410        C417   1.273       .  A
O411        C417   1.271       .  A
C413        C734   1.483       .  S
C414        C443   1.475       .  S
C415        C747   1.459       .  S
C416        C505   1.491       .  S
C417        C724   1.481       .  S
Zn418       O422   1.908       .  S
Zn418       O423   1.960       .  S
Zn418       O427   2.000       .  S
Zn418       O434   2.007       .  S
Zn419       O422   1.983       .  S
Zn419       O424   2.110       .  S
Zn419       O426   2.121       .  S
Zn419       O430   2.048       .  S
Zn420       O422   1.927       .  S
Zn420       O425   2.016       .  S
Zn420       O428   1.970       .  S
Zn420       O431   1.979       .  S
Zn421       O422   1.946       .  S
Zn421       O429   1.965       .  S
Zn421       O432   1.993       .  S
Zn421       O433   2.019       .  S
O423        C435   1.272       .  A
O424        C436   1.288       .  A
O425        C437   1.272       .  A
O426        C435   1.286       .  A
O427        C437   1.272       .  A
O428        C436   1.269       .  A
O429        C438   1.268       .  A
O430        C439   1.277       .  A
O431        C438   1.269       .  A
O432        C439   1.273       .  A
O433        C440   1.270       .  A
O434        C440   1.272       .  A
C436        C514   1.488       .  S
C437        C727   1.481       .  S
C438        C717   1.457       .  S
C439        C737   1.484       .  S
C440        C452   1.471       .  S
C441        C442   1.410       .  A
C441        C446   1.426       .  A
C441        C604   1.489   1_556  S
C442        C443   1.406       .  A
C442        H447   1.084       .  S
C443        C444   1.393       .  A
C444        C445   1.402       .  A
C444        H448   1.086       .  S
C445        C446   1.407       .  A
C445        C480   1.490       .  S
C446        H449   1.083       .  S
C450        C451   1.410       .  A
C450        C455   1.429       .  A
C450        C627   1.489       .  S
C451        C452   1.404       .  A
C451        H456   1.083       .  S
C452        C453   1.392       .  A
C453        C454   1.402       .  A
C453        H457   1.086       .  S
C454        C455   1.408       .  A
C454        C504   1.494       .  S
C455        H458   1.083       .  S
Zn459       O463   1.944       .  S
Zn459       O464   2.020       .  S
Zn459       O468   1.972       .  S
Zn459       O475   1.997       .  S
Zn460       O463   1.911   1_554  S
Zn460       O465   1.990       .  S
Zn460       O467   2.007       .  S
Zn460       O471   1.956       .  S
Zn461       O463   1.924   1_554  S
Zn461       O466   1.975       .  S
Zn461       O469   2.010       .  S
Zn461       O472   1.964       .  S
Zn462       O463   1.983       .  S
Zn462       O470   2.116       .  S
Zn462       O473   2.122       .  S
Zn462       O474   2.060       .  S
O464        C476   1.271   1_556  A
O465        C477   1.270       .  A
O466        C478   1.270   1_554  A
O467        C476   1.271       .  A
O468        C478   1.268       .  A
O469        C477   1.271       .  A
O470        C479   1.289       .  A
O471        C480   1.271   1_554  A
O472        C479   1.268   1_554  A
O473        C480   1.286       .  A
O474        C481   1.279       .  A
O475        C481   1.273       .  A
C477        C704   1.479       .  S
C478        C744   1.459       .  S
C479        C569   1.489       .  S
C481        C697   1.491       .  S
Zn482       O486   1.905       .  S
Zn482       O487   2.000       .  S
Zn482       O491   1.981       .  S
Zn482       O498   1.947       .  S
Zn483       O486   1.946       .  S
Zn483       O488   1.972       .  S
Zn483       O490   2.025       .  S
Zn483       O494   2.002       .  S
Zn484       O486   1.927       .  S
Zn484       O489   2.016       .  S
Zn484       O492   1.973       .  S
Zn484       O495   1.965       .  S
Zn485       O486   1.981       .  S
Zn485       O493   2.115       .  S
Zn485       O496   2.058       .  S
Zn485       O497   2.131       .  S
O487        C499   1.270       .  A
O488        C500   1.269       .  A
O489        C501   1.272       .  A
O490        C499   1.271       .  A
O491        C501   1.269       .  A
O492        C500   1.270       .  A
O493        C502   1.290       .  A
O494        C503   1.275       .  A
O495        C502   1.268       .  A
O496        C503   1.279       .  A
O497        C504   1.287       .  A
O498        C504   1.270       .  A
C500        C714   1.457       .  S
C501        C707   1.478       .  S
C502        C578   1.487       .  S
C503        C694   1.491       .  S
C505        C506   1.425       .  A
C505        C510   1.410       .  A
C506        H511   1.083       .  S
C507        C541   1.488       .  S
C508        C509   1.393       .  A
C508        H512   1.086       .  S
C509        C510   1.408       .  A
C509        C607   1.474       .  S
C510        H513   1.084       .  S
C514        C515   1.428       .  A
C514        C519   1.409       .  A
C515        H520   1.083       .  S
C516        C564   1.493       .  S
C517        C518   1.391       .  A
C517        H521   1.085       .  S
C518        C519   1.404       .  A
C518        C630   1.470       .  S
C519        H522   1.084       .  S
Zn523       O527   1.927       .  S
Zn523       O528   2.015       .  S
Zn523       O532   1.970       .  S
Zn523       O539   1.980       .  S
Zn524       O527   1.915       .  S
Zn524       O529   1.967       .  S
Zn524       O531   1.997       .  S
Zn524       O535   2.005       .  S
Zn525       O527   1.979   1_554  S
Zn525       O530   2.109       .  S
Zn525       O533   2.110       .  S
Zn525       O536   2.047       .  S
Zn526       O527   1.947   1_554  S
Zn526       O534   2.007       .  S
Zn526      O1289   2.024       .  S
Zn526       O538   1.969       .  S
O528        C540   1.272       .  A
O529        C541   1.272   1_556  A
O530        C542   1.288       .  A
O531        C540   1.271       .  A
O532        C542   1.268   1_556  A
O533        C541   1.285       .  A
O534        C543   1.274       .  A
O535       C1296   1.271       .  A
O536        C543   1.277       .  A
O537      Zn1278   2.024   1_455  S
O537        C544   1.271   1_554  A
O538        C545   1.269       .  A
O539        C545   1.270   1_556  A
C540        C664   1.469       .  S
C543        C674   1.489       .  S
C544        C571   1.471       .  S
C544       O1287   1.271       .  A
C545        C684   1.458       .  S
Zn546       O550   1.928       .  S
Zn546       O551   1.962       .  S
Zn546       O555   2.017       .  S
Zn546       O562   1.971       .  S
Zn547       O550   1.983       .  S
Zn547       O552   2.123       .  S
Zn547       O554   2.114       .  S
Zn547       O558   2.057       .  S
Zn548       O550   1.911       .  S
Zn548       O553   1.993       .  S
Zn548       O556   1.956       .  S
Zn548       O559   2.003       .  S
Zn549       O550   1.950       .  S
Zn549      O1309   2.013       .  S
Zn549       O560   1.997       .  S
Zn549       O561   1.969       .  S
O551        C563   1.267       .  A
O552        C564   1.286       .  A
O553        C565   1.270       .  A
O554        C563   1.288       .  A
O555        C565   1.271       .  A
O556        C564   1.271       .  A
O557      Zn1301   2.013   1_455  S
O557        C566   1.269       .  A
O558        C567   1.278       .  A
O559       C1318   1.271       .  A
O560        C567   1.274       .  A
O561        C568   1.268       .  A
O562        C568   1.268       .  A
C565        C667   1.471       .  S
C566        C580   1.469       .  S
C566       O1311   1.271       .  A
C567        C677   1.487       .  S
C568        C654   1.441       .  S
C569        C570   1.410       .  A
C569        C574   1.427       .  A
C570        C571   1.405       .  A
C570        H575   1.083       .  S
C571        C572   1.393       .  A
C572        C573   1.401       .  A
C572        H576   1.086       .  S
C573        C574   1.406       .  A
C574        H577   1.083       .  S
C578        C579   1.408       .  A
C578        C583   1.429       .  A
C579        C580   1.402       .  A
C579        H584   1.084       .  S
C580        C581   1.391       .  A
C581        C582   1.403       .  A
C581        H585   1.085       .  S
C582        C583   1.409       .  A
C583        H586   1.083       .  S
Zn587       O591   1.978   1_556  S
Zn587       O592   2.102       .  S
Zn587       O596   2.042       .  S
Zn587       O603   2.113       .  S
Zn588       O591   1.924       .  S
Zn588       O593   1.975       .  S
Zn588       O595   1.985       .  S
Zn588       O599   2.014       .  S
Zn589       O591   1.949   1_556  S
Zn589       O594   2.004       .  S
Zn589       O597   1.972       .  S
Zn589      O1352   2.008   1_455  S
Zn590       O591   1.923       .  S
Zn590       O598   2.034       .  S
Zn590       O601   2.023       .  S
Zn590       O602   1.967       .  S
O592        C604   1.287   1_556  A
O593        C605   1.270       .  A
O594        C606   1.273       .  A
O595        C604   1.270       .  A
O596        C606   1.276       .  A
O597        C605   1.268   1_556  A
O598       C1359   1.275   1_455  A
O599        C608   1.273       .  A
O600      Zn1341   2.008       .  S
O600        C607   1.270   1_556  A
O601        C608   1.273       .  A
O602        C609   1.272       .  A
O603        C609   1.285   1_556  A
C605        C687   1.459       .  S
C606        C634   1.478       .  S
C607       O1350   1.275       .  A
C608        C647   1.471       .  S
Zn610       O614   1.989       .  S
Zn610       O615   2.116       .  S
Zn610       O619   2.061       .  S
Zn610       O626   2.124       .  S
Zn611       O614   1.931       .  S
Zn611       O616   1.982       .  S
Zn611       O618   1.965       .  S
Zn611       O622   2.021       .  S
Zn612       O614   1.945       .  S
Zn612       O617   1.981       .  S
Zn612       O620   1.957       .  S
Zn612      O1375   2.005   1_455  S
Zn613       O614   1.915       .  S
Zn613       O621   2.018       .  S
Zn613       O624   2.016       .  S
Zn613       O625   1.960       .  S
O615        C627   1.289       .  A
O616        C628   1.269       .  A
O617        C629   1.271       .  A
O618        C627   1.268       .  A
O619        C629   1.278       .  A
O620        C628   1.267       .  A
O621       C1382   1.274   1_455  A
O622        C631   1.273       .  A
O623      Zn1364   2.005       .  S
O623        C630   1.268       .  A
O624        C631   1.273       .  A
O625        C632   1.272       .  A
O626        C632   1.287       .  A
C628        C657   1.445       .  S
C629        C644   1.484       .  S
C630       O1373   1.274       .  A
C631        C637   1.480       .  S
C633        C634   1.404       .  A
C633        C638   1.401       .  A
C633        H640   1.083       .  S
C634        C635   1.406       .  A
C635        C636   1.398       .  A
C635        F642   1.358       .  S
C636        C637   1.405       .  A
C636        H641   1.084       .  S
C637        C638   1.408       .  A
C638        F639   1.357       .  S
C643        C644   1.407       .  A
C643        C648   1.404       .  A
C643        H650   1.083       .  S
C644        C645   1.411       .  A
C645        C646   1.393       .  A
C645        F652   1.358       .  S
C646        C647   1.399       .  A
C646        H651   1.084       .  S
C647        C648   1.405       .  A
C648        F649   1.357       .  S
C653        C654   1.396       .  A
C653        C658   1.388       .  A
C653        H660   1.084       .  S
C654       C1407   1.401       .  A
C655       C1406   1.401   1_455  A
C655        C656   1.390       .  A
C655        F662   1.358       .  S
C656        C657   1.398       .  A
C656        H661   1.083       .  S
C657       C1410   1.403   1_455  A
C658       C1409   1.403       .  A
C658        F659   1.358       .  S
C663        C664   1.401       .  A
C663        C668   1.392       .  A
C663        H670   1.084       .  S
C664        C665   1.405       .  A
C665        C666   1.401       .  A
C665        F672   1.357       .  S
C666        C667   1.405       .  A
C666        H671   1.084       .  S
C667        C668   1.406       .  A
C668        F669   1.358       .  S
C673        C674   1.408       .  A
C673        C678   1.404       .  A
C673        H680   1.083       .  S
C674        C675   1.409       .  A
C675        C676   1.395       .  A
C675        F682   1.358       .  S
C676        C677   1.406       .  A
C676        H681   1.084       .  S
C677        C678   1.409       .  A
C678        F679   1.357       .  S
C683        C684   1.401   1_556  A
C683        C688   1.390       .  A
C683        H690   1.083       .  S
C684       C1437   1.405       .  A
C685       C1436   1.405   1_455  A
C685        C686   1.388       .  A
C685        F692   1.358       .  S
C686        C687   1.401       .  A
C686        H691   1.083       .  S
C687       C1440   1.406   1_454  A
C688       C1439   1.406   1_556  A
C688        F689   1.358       .  S
C693        C694   1.406       .  A
C693        C698   1.395       .  A
C693        H700   1.083       .  S
C694        C695   1.411       .  A
C695        C696   1.406       .  A
C695        F702   1.357       .  S
C696        C697   1.408       .  A
C696        H701   1.082       .  S
C697        C698   1.410       .  A
C698        F699   1.358       .  S
C703        C704   1.406       .  A
C703        C708   1.399       .  A
C703        H710   1.083       .  S
C704        C705   1.408       .  A
C705        C706   1.391       .  A
C705        F712   1.358       .  S
C706        C707   1.405       .  A
C706        H711   1.084       .  S
C707        C708   1.408       .  A
C708        F709   1.357       .  S
C713        C714   1.400       .  A
C713        H720   1.083       .  S
C714        C715   1.405       .  A
C715        C716   1.390       .  A
C715        F722   1.358       .  S
C716        H721   1.083       .  S
C717        C718   1.405       .  A
C718        F719   1.358       .  S
C723        C724   1.406       .  A
C723        C728   1.400       .  A
C723        H730   1.084       .  S
C724        C725   1.409       .  A
C725        C726   1.394       .  A
C725        F732   1.358       .  S
C726        C727   1.405       .  A
C726        H731   1.084       .  S
C727        C728   1.409       .  A
C728        F729   1.357       .  S
C733        C734   1.404       .  A
C733        C738   1.393       .  A
C733        H740   1.083       .  S
C734        C735   1.409       .  A
C735        C736   1.404       .  A
C735        F742   1.357       .  S
C736        C737   1.407       .  A
C736        H741   1.083       .  S
C737        C738   1.408       .  A
C738        F739   1.358       .  S
C743        C744   1.401   1_554  A
C743        H750   1.082       .  S
C744        C745   1.406       .  A
C745        C746   1.390       .  A
C745        F752   1.358       .  S
C746        H751   1.082       .  S
C747        C748   1.406   1_556  A
C748        F749   1.358       .  S
C753        C754   1.409       .  A
C753        C758   1.427       .  A
C753        C918   1.488       .  S
C754        C755   1.405       .  A
C754        H759   1.084       .  S
C755        C756   1.392       .  A
C755        C852   1.470       .  S
C756        C757   1.401       .  A
C756        H760   1.086       .  S
C757        C758   1.407       .  A
C757        C788   1.490       .  S
C758        H761   1.083       .  S
C762        C763   1.428       .  A
C762        C767   1.408       .  A
C762        C939   1.487       .  S
C763        C764   1.407       .  A
C763        H768   1.083       .  S
C764        C765   1.402       .  A
C764        C811   1.492       .  S
C765        C766   1.392       .  A
C765        H769   1.086       .  S
C766        C767   1.404       .  A
C766        C875   1.470       .  S
C767        H770   1.084       .  S
Zn771       O775   1.913       .  S
Zn771       O776   1.965       .  S
Zn771       O780   2.015       .  S
Zn771       O787   2.000       .  S
Zn772       O775   1.984   1_554  S
Zn772       O777   2.046       .  S
Zn772       O779   2.113       .  S
Zn772       O783   2.110       .  S
Zn773       O775   1.947   1_554  S
Zn773       O778   2.023       .  S
Zn773       O781   1.996       .  S
Zn773       O784   1.964       .  S
Zn774       O775   1.930       .  S
Zn774       O782   1.983       .  S
Zn774       O785   1.977       .  S
Zn774       O786   2.017       .  S
O776        C788   1.272   1_556  A
O777        C789   1.277       .  A
O778        C790   1.271   1_554  A
O779        C788   1.285       .  A
O780        C790   1.273       .  A
O781        C789   1.273       .  A
O782        C791   1.270       .  A
O783        C792   1.288       .  A
O784        C791   1.268   1_554  A
O785        C792   1.270   1_556  A
O786        C793   1.273       .  A
O787        C793   1.271       .  A
C789       C1110   1.483       .  S
C790        C819   1.475       .  S
C791       C1123   1.459       .  S
C792        C881   1.491       .  S
C793       C1100   1.481       .  S
Zn794       O798   1.908       .  S
Zn794       O799   1.960       .  S
Zn794       O803   2.000       .  S
Zn794       O810   2.007       .  S
Zn795       O798   1.983       .  S
Zn795       O800   2.110       .  S
Zn795       O802   2.121       .  S
Zn795       O806   2.048       .  S
Zn796       O798   1.927       .  S
Zn796       O801   2.016       .  S
Zn796       O804   1.970       .  S
Zn796       O807   1.979       .  S
Zn797       O798   1.946       .  S
Zn797       O805   1.965       .  S
Zn797       O808   1.993       .  S
Zn797       O809   2.019       .  S
O799        C811   1.272       .  A
O800        C812   1.288       .  A
O801        C813   1.272       .  A
O802        C811   1.286       .  A
O803        C813   1.272       .  A
O804        C812   1.269       .  A
O805        C814   1.268       .  A
O806        C815   1.277       .  A
O807        C814   1.269       .  A
O808        C815   1.273       .  A
O809        C816   1.270       .  A
O810        C816   1.272       .  A
C812        C890   1.488       .  S
C813       C1103   1.481       .  S
C814       C1093   1.457       .  S
C815       C1113   1.484       .  S
C816        C828   1.471       .  S
C817        C818   1.410       .  A
C817        C822   1.426       .  A
C817        C980   1.489   1_556  S
C818        C819   1.406       .  A
C818        H823   1.084       .  S
C819        C820   1.393       .  A
C820        C821   1.402       .  A
C820        H824   1.086       .  S
C821        C822   1.407       .  A
C821        C856   1.490       .  S
C822        H825   1.083       .  S
C826        C827   1.410       .  A
C826        C831   1.429       .  A
C826       C1003   1.489       .  S
C827        C828   1.404       .  A
C827        H832   1.083       .  S
C828        C829   1.392       .  A
C829        C830   1.402       .  A
C829        H833   1.086       .  S
C830        C831   1.408       .  A
C830        C880   1.494       .  S
C831        H834   1.083       .  S
Zn835       O839   1.944       .  S
Zn835       O840   2.020       .  S
Zn835       O844   1.972       .  S
Zn835       O851   1.997       .  S
Zn836       O839   1.911   1_554  S
Zn836       O841   1.990       .  S
Zn836       O843   2.007       .  S
Zn836       O847   1.956       .  S
Zn837       O839   1.924   1_554  S
Zn837       O842   1.975       .  S
Zn837       O845   2.010       .  S
Zn837       O848   1.964       .  S
Zn838       O839   1.983       .  S
Zn838       O846   2.116       .  S
Zn838       O849   2.122       .  S
Zn838       O850   2.060       .  S
O840        C852   1.271   1_556  A
O841        C853   1.270       .  A
O842        C854   1.270   1_554  A
O843        C852   1.271       .  A
O844        C854   1.268       .  A
O845        C853   1.271       .  A
O846        C855   1.289       .  A
O847        C856   1.271   1_554  A
O848        C855   1.268   1_554  A
O849        C856   1.286       .  A
O850        C857   1.279       .  A
O851        C857   1.273       .  A
C853       C1080   1.479       .  S
C854       C1120   1.459       .  S
C855        C945   1.489       .  S
C857       C1073   1.491       .  S
Zn858       O862   1.905       .  S
Zn858       O863   2.000       .  S
Zn858       O867   1.981       .  S
Zn858       O874   1.947       .  S
Zn859       O862   1.946       .  S
Zn859       O864   1.972       .  S
Zn859       O866   2.025       .  S
Zn859       O870   2.002       .  S
Zn860       O862   1.927       .  S
Zn860       O865   2.016       .  S
Zn860       O868   1.973       .  S
Zn860       O871   1.965       .  S
Zn861       O862   1.981       .  S
Zn861       O869   2.115       .  S
Zn861       O872   2.058       .  S
Zn861       O873   2.131       .  S
O863        C875   1.270       .  A
O864        C876   1.269       .  A
O865        C877   1.272       .  A
O866        C875   1.271       .  A
O867        C877   1.269       .  A
O868        C876   1.270       .  A
O869        C878   1.290       .  A
O870        C879   1.275       .  A
O871        C878   1.268       .  A
O872        C879   1.279       .  A
O873        C880   1.287       .  A
O874        C880   1.270       .  A
C876       C1090   1.457       .  S
C877       C1083   1.478       .  S
C878        C954   1.487       .  S
C879       C1070   1.491       .  S
C881        C882   1.425       .  A
C881        C886   1.410       .  A
C882       C1259   1.406   1_545  A
C882        H887   1.083       .  S
C883       C1258   1.406       .  A
C883       C1260   1.402       .  A
C883        C917   1.488       .  S
C884       C1259   1.402   1_545  A
C884        C885   1.393       .  A
C884        H888   1.086   1_545  S
C885        C886   1.408       .  A
C885        C983   1.474       .  S
C886        H889   1.084       .  S
C890        C891   1.428       .  A
C890        C895   1.409       .  A
C891       C1268   1.408   1_545  A
C891        H896   1.083       .  S
C892       C1267   1.408       .  A
C892       C1269   1.403       .  A
C892        C940   1.493       .  S
C893       C1268   1.403   1_545  A
C893        C894   1.391       .  A
C893        H897   1.085   1_545  S
C894        C895   1.404       .  A
C894       C1006   1.470       .  S
C895        H898   1.084       .  S
Zn899       O903   1.927       .  S
Zn899       O904   2.015       .  S
Zn899       O908   1.970       .  S
Zn899       O915   1.980       .  S
Zn900       O903   1.915       .  S
Zn900       O905   1.967       .  S
Zn900       O907   1.997       .  S
Zn900       O911   2.005   1_655  S
Zn901       O903   1.979   1_554  S
Zn901       O906   2.109       .  S
Zn901       O909   2.110       .  S
Zn901       O912   2.047       .  S
Zn902       O903   1.947   1_554  S
Zn902       O910   2.007       .  S
Zn902       O914   1.969       .  S
O904        C916   1.272       .  A
O905        C917   1.272   1_556  A
O906        C918   1.288       .  A
O907        C916   1.271       .  A
O908        C918   1.268   1_556  A
O909        C917   1.285       .  A
O910        C919   1.274       .  A
O912        C919   1.277       .  A
O913        C920   1.271   1_554  A
O914        C921   1.269       .  A
O915        C921   1.270   1_556  A
C916       C1040   1.469       .  S
C919       C1050   1.489       .  S
C920        C947   1.471       .  S
C921       C1060   1.458       .  S
Zn922       O926   1.928       .  S
Zn922       O927   1.962       .  S
Zn922       O931   2.017       .  S
Zn922       O938   1.971       .  S
Zn923       O926   1.983       .  S
Zn923       O928   2.123       .  S
Zn923       O930   2.114       .  S
Zn923       O934   2.057       .  S
Zn924       O926   1.911       .  S
Zn924       O929   1.993       .  S
Zn924       O932   1.956       .  S
Zn924       O935   2.003   1_655  S
Zn925       O926   1.950       .  S
Zn925       O936   1.997       .  S
Zn925       O937   1.969       .  S
O927        C939   1.267       .  A
O928        C940   1.286       .  A
O929        C941   1.270       .  A
O930        C939   1.288       .  A
O931        C941   1.271       .  A
O932        C940   1.271       .  A
O933        C942   1.269       .  A
O934        C943   1.278       .  A
O936        C943   1.274       .  A
O937        C944   1.268       .  A
O938        C944   1.268       .  A
C941       C1043   1.471       .  S
C942        C956   1.469       .  S
C943       C1053   1.487       .  S
C944       C1030   1.441       .  S
C945        C946   1.410       .  A
C945        C950   1.427       .  A
C946        C947   1.405       .  A
C946        H951   1.083       .  S
C947        C948   1.393       .  A
C948        C949   1.401       .  A
C948        H952   1.086       .  S
C949        C950   1.406       .  A
C949       C1361   1.490   1_556  S
C950        H953   1.083       .  S
C954        C955   1.408       .  A
C954        C959   1.429       .  A
C955        C956   1.402       .  A
C955        H960   1.084       .  S
C956        C957   1.391       .  A
C957        C958   1.403       .  A
C957        H961   1.085       .  S
C958        C959   1.409       .  A
C958       C1384   1.495       .  S
C959        H962   1.083       .  S
Zn963       O967   1.978   1_556  S
Zn963       O968   2.102       .  S
Zn963       O972   2.042       .  S
Zn963       O979   2.113       .  S
Zn964       O967   1.924       .  S
Zn964       O969   1.975       .  S
Zn964       O971   1.985       .  S
Zn964       O975   2.014       .  S
Zn965       O967   1.949   1_556  S
Zn965       O970   2.004       .  S
Zn965       O973   1.972       .  S
Zn966       O967   1.923       .  S
Zn966       O974   2.034       .  S
Zn966       O977   2.023       .  S
Zn966       O978   1.967       .  S
O968        C980   1.287   1_556  A
O969        C981   1.270       .  A
O970        C982   1.273       .  A
O971        C980   1.270       .  A
O972        C982   1.276       .  A
O973        C981   1.268   1_556  A
O975        C984   1.273       .  A
O976        C983   1.270   1_556  A
O977        C984   1.273       .  A
O978        C985   1.272   1_545  A
O979        C985   1.285   1_546  A
C981       C1063   1.459       .  S
C982       C1010   1.478       .  S
C984       C1023   1.471       .  S
C985       C1325   1.490   1_554  S
Zn986       O990   1.989       .  S
Zn986       O991   2.116       .  S
Zn986       O995   2.061       .  S
Zn986      O1002   2.124       .  S
Zn987       O990   1.931       .  S
Zn987       O992   1.982       .  S
Zn987       O994   1.965       .  S
Zn987       O998   2.021       .  S
Zn988       O990   1.945       .  S
Zn988       O993   1.981       .  S
Zn988       O996   1.957       .  S
Zn989       O990   1.915       .  S
Zn989       O997   2.018       .  S
Zn989      O1000   2.016       .  S
Zn989      O1001   1.960       .  S
O991       C1003   1.289       .  A
O992       C1004   1.269       .  A
O993       C1005   1.271       .  A
O994       C1003   1.268       .  A
O995       C1005   1.278       .  A
O996       C1004   1.267       .  A
O998       C1007   1.273       .  A
O999       C1006   1.268       .  A
O1000      C1007   1.273       .  A
O1001      C1008   1.272   1_545  A
O1002      C1008   1.287   1_545  A
C1004      C1033   1.445       .  S
C1005      C1020   1.484       .  S
C1007      C1013   1.480       .  S
C1008      C1334   1.495       .  S
C1009      C1010   1.404       .  A
C1009      C1014   1.401       .  A
C1009      H1016   1.083       .  S
C1010      C1011   1.406       .  A
C1011      C1012   1.398       .  A
C1011      F1018   1.358       .  S
C1012      C1013   1.405       .  A
C1012      H1017   1.084       .  S
C1013      C1014   1.408       .  A
C1014      F1015   1.357       .  S
C1019      C1020   1.407       .  A
C1019      C1024   1.404       .  A
C1019      H1026   1.083       .  S
C1020      C1021   1.411       .  A
C1021      C1022   1.393       .  A
C1021      F1028   1.358       .  S
C1022      C1023   1.399       .  A
C1022      H1027   1.084       .  S
C1023      C1024   1.405       .  A
C1024      F1025   1.357       .  S
C1029      C1030   1.396       .  A
C1029      C1034   1.388       .  A
C1029      H1036   1.084       .  S
C1031      C1032   1.390       .  A
C1031      F1038   1.358       .  S
C1032      C1033   1.398       .  A
C1032      H1037   1.083       .  S
C1034      F1035   1.358       .  S
C1039      C1040   1.401       .  A
C1039      C1044   1.392       .  A
C1039      H1046   1.084       .  S
C1040      C1041   1.405       .  A
C1041      C1042   1.401       .  A
C1041      F1048   1.357       .  S
C1042      C1043   1.405       .  A
C1042      H1047   1.084       .  S
C1043      C1044   1.406       .  A
C1044      F1045   1.358       .  S
C1049      C1050   1.408       .  A
C1049      C1054   1.404       .  A
C1049      H1056   1.083       .  S
C1050      C1051   1.409       .  A
C1051      C1052   1.395       .  A
C1051      F1058   1.358       .  S
C1052      C1053   1.406       .  A
C1052      H1057   1.084       .  S
C1053      C1054   1.409       .  A
C1054      F1055   1.357       .  S
C1059      C1060   1.401   1_556  A
C1059      C1064   1.390       .  A
C1059      H1066   1.083       .  S
C1061      C1062   1.388       .  A
C1061      F1068   1.358       .  S
C1062      C1063   1.401       .  A
C1062      H1067   1.083       .  S
C1064      F1065   1.358       .  S
C1069      C1070   1.406       .  A
C1069      C1074   1.395       .  A
C1069      H1076   1.083       .  S
C1070      C1071   1.411       .  A
C1071      C1072   1.406       .  A
C1071      F1078   1.357       .  S
C1072      C1073   1.408       .  A
C1072      H1077   1.082       .  S
C1073      C1074   1.410       .  A
C1074      F1075   1.358       .  S
C1079      C1080   1.406       .  A
C1079      C1084   1.399       .  A
C1079      H1086   1.083       .  S
C1080      C1081   1.408       .  A
C1081      C1082   1.391       .  A
C1081      F1088   1.358       .  S
C1082      C1083   1.405       .  A
C1082      H1087   1.084       .  S
C1083      C1084   1.408       .  A
C1084      F1085   1.357       .  S
C1089      C1090   1.400       .  A
C1089      C1470   1.387       .  A
C1089      H1096   1.083       .  S
C1090      C1091   1.405       .  A
C1091      C1092   1.390       .  A
C1091      F1098   1.358       .  S
C1092      C1469   1.401       .  A
C1092      H1097   1.083       .  S
C1093      C1468   1.401   1_545  A
C1093      C1094   1.405       .  A
C1094      C1465   1.387   1_545  A
C1094      F1095   1.358       .  S
C1099      C1100   1.406       .  A
C1099      C1104   1.400       .  A
C1099      H1106   1.084       .  S
C1100      C1101   1.409       .  A
C1101      C1102   1.394       .  A
C1101      F1108   1.358       .  S
C1102      C1103   1.405       .  A
C1102      H1107   1.084       .  S
C1103      C1104   1.409       .  A
C1104      F1105   1.357       .  S
C1109      C1110   1.404       .  A
C1109      C1114   1.393       .  A
C1109      H1116   1.083       .  S
C1110      C1111   1.409       .  A
C1111      C1112   1.404       .  A
C1111      F1118   1.357       .  S
C1112      C1113   1.407       .  A
C1112      H1117   1.083       .  S
C1113      C1114   1.408       .  A
C1114      F1115   1.358       .  S
C1119      C1120   1.401   1_554  A
C1119      C1500   1.388       .  A
C1119      H1126   1.082       .  S
C1120      C1121   1.406       .  A
C1121      C1122   1.390       .  A
C1121      F1128   1.358       .  S
C1122      C1499   1.401       .  A
C1122      H1127   1.082       .  S
C1123      C1498   1.401   1_545  A
C1123      C1124   1.406   1_556  A
C1124      C1495   1.388   1_545  A
C1124      F1125   1.358       .  S
C1129      C1130   1.409       .  A
C1129      C1134   1.427       .  A
C1129      C1294   1.488       .  S
C1130      C1131   1.405       .  A
C1130      H1135   1.084       .  S
C1131      C1132   1.392       .  A
C1131      C1228   1.470       .  S
C1132      C1133   1.401       .  A
C1132      H1136   1.086       .  S
C1133      C1134   1.407       .  A
C1133      C1164   1.490       .  S
C1134      H1137   1.083       .  S
C1138      C1139   1.428       .  A
C1138      C1143   1.408       .  A
C1138      C1315   1.487       .  S
C1139      C1140   1.407       .  A
C1139      H1144   1.083       .  S
C1140      C1141   1.402       .  A
C1140      C1187   1.492       .  S
C1141      C1142   1.392       .  A
C1141      H1145   1.086       .  S
C1142      C1143   1.404       .  A
C1142      C1251   1.470       .  S
C1143      H1146   1.084       .  S
Zn1147     O1151   1.913       .  S
Zn1147     O1152   1.965       .  S
Zn1147     O1156   2.015       .  S
Zn1147     O1163   2.000       .  S
Zn1148     O1151   1.984   1_554  S
Zn1148     O1153   2.046       .  S
Zn1148     O1155   2.113       .  S
Zn1148     O1159   2.110       .  S
Zn1149     O1151   1.947   1_554  S
Zn1149     O1154   2.023       .  S
Zn1149     O1157   1.996       .  S
Zn1149     O1160   1.964       .  S
Zn1150     O1151   1.930       .  S
Zn1150     O1158   1.983       .  S
Zn1150     O1161   1.977       .  S
Zn1150     O1162   2.017       .  S
O1152      C1164   1.272   1_556  A
O1153      C1165   1.277       .  A
O1154      C1166   1.271   1_554  A
O1155      C1164   1.285       .  A
O1156      C1166   1.273       .  A
O1157      C1165   1.273       .  A
O1158      C1167   1.270       .  A
O1159      C1168   1.288       .  A
O1160      C1167   1.268   1_554  A
O1161      C1168   1.270   1_556  A
O1162      C1169   1.273       .  A
O1163      C1169   1.271       .  A
C1165      C1486   1.483       .  S
C1166      C1195   1.475       .  S
C1167      C1499   1.459       .  S
C1168      C1257   1.491       .  S
C1169      C1476   1.481       .  S
Zn1170     O1174   1.908       .  S
Zn1170     O1175   1.960       .  S
Zn1170     O1179   2.000       .  S
Zn1170     O1186   2.007       .  S
Zn1171     O1174   1.983       .  S
Zn1171     O1176   2.110       .  S
Zn1171     O1178   2.121       .  S
Zn1171     O1182   2.048       .  S
Zn1172     O1174   1.927       .  S
Zn1172     O1177   2.016       .  S
Zn1172     O1180   1.970       .  S
Zn1172     O1183   1.979       .  S
Zn1173     O1174   1.946       .  S
Zn1173     O1181   1.965       .  S
Zn1173     O1184   1.993       .  S
Zn1173     O1185   2.019       .  S
O1175      C1187   1.272       .  A
O1176      C1188   1.288       .  A
O1177      C1189   1.272       .  A
O1178      C1187   1.286       .  A
O1179      C1189   1.272       .  A
O1180      C1188   1.269       .  A
O1181      C1190   1.268       .  A
O1182      C1191   1.277       .  A
O1183      C1190   1.269       .  A
O1184      C1191   1.273       .  A
O1185      C1192   1.270       .  A
O1186      C1192   1.272       .  A
C1188      C1266   1.488       .  S
C1189      C1479   1.481       .  S
C1190      C1469   1.457       .  S
C1191      C1489   1.484       .  S
C1192      C1204   1.471       .  S
C1193      C1194   1.410       .  A
C1193      C1198   1.426       .  A
C1193      C1356   1.489   1_556  S
C1194      C1195   1.406       .  A
C1194      H1199   1.084       .  S
C1195      C1196   1.393       .  A
C1196      C1197   1.402       .  A
C1196      H1200   1.086       .  S
C1197      C1198   1.407       .  A
C1197      C1232   1.490       .  S
C1198      H1201   1.083       .  S
C1202      C1203   1.410       .  A
C1202      C1207   1.429       .  A
C1202      C1379   1.489       .  S
C1203      C1204   1.404       .  A
C1203      H1208   1.083       .  S
C1204      C1205   1.392       .  A
C1205      C1206   1.402       .  A
C1205      H1209   1.086       .  S
C1206      C1207   1.408       .  A
C1206      C1256   1.494       .  S
C1207      H1210   1.083       .  S
Zn1211     O1215   1.944       .  S
Zn1211     O1216   2.020       .  S
Zn1211     O1220   1.972       .  S
Zn1211     O1227   1.997       .  S
Zn1212     O1215   1.911   1_554  S
Zn1212     O1217   1.990       .  S
Zn1212     O1219   2.007       .  S
Zn1212     O1223   1.956       .  S
Zn1213     O1215   1.924   1_554  S
Zn1213     O1218   1.975       .  S
Zn1213     O1221   2.010       .  S
Zn1213     O1224   1.964       .  S
Zn1214     O1215   1.983       .  S
Zn1214     O1222   2.116       .  S
Zn1214     O1225   2.122       .  S
Zn1214     O1226   2.060       .  S
O1216      C1228   1.271   1_556  A
O1217      C1229   1.270       .  A
O1218      C1230   1.270   1_554  A
O1219      C1228   1.271       .  A
O1220      C1230   1.268       .  A
O1221      C1229   1.271       .  A
O1222      C1231   1.289       .  A
O1223      C1232   1.271   1_554  A
O1224      C1231   1.268   1_554  A
O1225      C1232   1.286       .  A
O1226      C1233   1.279       .  A
O1227      C1233   1.273       .  A
C1229      C1456   1.479       .  S
C1230      C1496   1.459       .  S
C1231      C1321   1.489       .  S
C1233      C1449   1.491       .  S
Zn1234     O1238   1.905       .  S
Zn1234     O1239   2.000       .  S
Zn1234     O1243   1.981       .  S
Zn1234     O1250   1.947       .  S
Zn1235     O1238   1.946       .  S
Zn1235     O1240   1.972       .  S
Zn1235     O1242   2.025       .  S
Zn1235     O1246   2.002       .  S
Zn1236     O1238   1.927       .  S
Zn1236     O1241   2.016       .  S
Zn1236     O1244   1.973       .  S
Zn1236     O1247   1.965       .  S
Zn1237     O1238   1.981       .  S
Zn1237     O1245   2.115       .  S
Zn1237     O1248   2.058       .  S
Zn1237     O1249   2.131       .  S
O1239      C1251   1.270       .  A
O1240      C1252   1.269       .  A
O1241      C1253   1.272       .  A
O1242      C1251   1.271       .  A
O1243      C1253   1.269       .  A
O1244      C1252   1.270       .  A
O1245      C1254   1.290       .  A
O1246      C1255   1.275       .  A
O1247      C1254   1.268       .  A
O1248      C1255   1.279       .  A
O1249      C1256   1.287       .  A
O1250      C1256   1.270       .  A
C1252      C1466   1.457       .  S
C1253      C1459   1.478       .  S
C1254      C1330   1.487       .  S
C1255      C1446   1.491       .  S
C1257      C1258   1.425       .  A
C1257      C1262   1.410       .  A
C1258      H1263   1.083       .  S
C1259      C1293   1.488       .  S
C1260      C1261   1.393       .  A
C1260      H1264   1.086       .  S
C1261      C1262   1.408       .  A
C1261      C1359   1.474       .  S
C1262      H1265   1.084       .  S
C1266      C1267   1.428       .  A
C1266      C1271   1.409       .  A
C1267      H1272   1.083       .  S
C1268      C1316   1.493       .  S
C1269      C1270   1.391       .  A
C1269      H1273   1.085       .  S
C1270      C1271   1.404       .  A
C1270      C1382   1.470       .  S
C1271      H1274   1.084       .  S
Zn1275     O1279   1.927       .  S
Zn1275     O1280   2.015       .  S
Zn1275     O1284   1.970       .  S
Zn1275     O1291   1.980       .  S
Zn1276     O1279   1.915       .  S
Zn1276     O1281   1.967       .  S
Zn1276     O1283   1.997       .  S
Zn1276     O1287   2.005   1_655  S
Zn1277     O1279   1.979   1_554  S
Zn1277     O1282   2.109       .  S
Zn1277     O1285   2.110       .  S
Zn1277     O1288   2.047       .  S
Zn1278     O1279   1.947   1_554  S
Zn1278     O1286   2.007       .  S
Zn1278     O1290   1.969       .  S
O1280      C1292   1.272       .  A
O1281      C1293   1.272   1_556  A
O1282      C1294   1.288       .  A
O1283      C1292   1.271       .  A
O1284      C1294   1.268   1_556  A
O1285      C1293   1.285       .  A
O1286      C1295   1.274       .  A
O1288      C1295   1.277       .  A
O1289      C1296   1.271   1_554  A
O1290      C1297   1.269       .  A
O1291      C1297   1.270   1_556  A
C1292      C1416   1.469       .  S
C1295      C1426   1.489       .  S
C1296      C1323   1.471       .  S
C1297      C1436   1.458       .  S
Zn1298     O1302   1.928       .  S
Zn1298     O1303   1.962       .  S
Zn1298     O1307   2.017       .  S
Zn1298     O1314   1.971       .  S
Zn1299     O1302   1.983       .  S
Zn1299     O1304   2.123       .  S
Zn1299     O1306   2.114       .  S
Zn1299     O1310   2.057       .  S
Zn1300     O1302   1.911       .  S
Zn1300     O1305   1.993       .  S
Zn1300     O1308   1.956       .  S
Zn1300     O1311   2.003   1_655  S
Zn1301     O1302   1.950       .  S
Zn1301     O1312   1.997       .  S
Zn1301     O1313   1.969       .  S
O1303      C1315   1.267       .  A
O1304      C1316   1.286       .  A
O1305      C1317   1.270       .  A
O1306      C1315   1.288       .  A
O1307      C1317   1.271       .  A
O1308      C1316   1.271       .  A
O1309      C1318   1.269       .  A
O1310      C1319   1.278       .  A
O1312      C1319   1.274       .  A
O1313      C1320   1.268       .  A
O1314      C1320   1.268       .  A
C1317      C1419   1.471       .  S
C1318      C1332   1.469       .  S
C1319      C1429   1.487       .  S
C1320      C1406   1.441       .  S
C1321      C1322   1.410       .  A
C1321      C1326   1.427       .  A
C1322      C1323   1.405       .  A
C1322      H1327   1.083       .  S
C1323      C1324   1.393       .  A
C1324      C1325   1.401       .  A
C1324      H1328   1.086       .  S
C1325      C1326   1.406       .  A
C1326      H1329   1.083       .  S
C1330      C1331   1.408       .  A
C1330      C1335   1.429       .  A
C1331      C1332   1.402       .  A
C1331      H1336   1.084       .  S
C1332      C1333   1.391       .  A
C1333      C1334   1.403       .  A
C1333      H1337   1.085       .  S
C1334      C1335   1.409       .  A
C1335      H1338   1.083       .  S
Zn1339     O1343   1.978   1_556  S
Zn1339     O1344   2.102       .  S
Zn1339     O1348   2.042       .  S
Zn1339     O1355   2.113       .  S
Zn1340     O1343   1.924       .  S
Zn1340     O1345   1.975       .  S
Zn1340     O1347   1.985       .  S
Zn1340     O1351   2.014       .  S
Zn1341     O1343   1.949   1_556  S
Zn1341     O1346   2.004       .  S
Zn1341     O1349   1.972       .  S
Zn1342     O1343   1.923       .  S
Zn1342     O1350   2.034       .  S
Zn1342     O1353   2.023       .  S
Zn1342     O1354   1.967       .  S
O1344      C1356   1.287   1_556  A
O1345      C1357   1.270       .  A
O1346      C1358   1.273       .  A
O1347      C1356   1.270       .  A
O1348      C1358   1.276       .  A
O1349      C1357   1.268   1_556  A
O1351      C1360   1.273       .  A
O1352      C1359   1.270   1_556  A
O1353      C1360   1.273       .  A
O1354      C1361   1.272       .  A
O1355      C1361   1.285   1_556  A
C1357      C1439   1.459       .  S
C1358      C1386   1.478       .  S
C1360      C1399   1.471       .  S
Zn1362     O1366   1.989       .  S
Zn1362     O1367   2.116       .  S
Zn1362     O1371   2.061       .  S
Zn1362     O1378   2.124       .  S
Zn1363     O1366   1.931       .  S
Zn1363     O1368   1.982       .  S
Zn1363     O1370   1.965       .  S
Zn1363     O1374   2.021       .  S
Zn1364     O1366   1.945       .  S
Zn1364     O1369   1.981       .  S
Zn1364     O1372   1.957       .  S
Zn1365     O1366   1.915       .  S
Zn1365     O1373   2.018       .  S
Zn1365     O1376   2.016       .  S
Zn1365     O1377   1.960       .  S
O1367      C1379   1.289       .  A
O1368      C1380   1.269       .  A
O1369      C1381   1.271       .  A
O1370      C1379   1.268       .  A
O1371      C1381   1.278       .  A
O1372      C1380   1.267       .  A
O1374      C1383   1.273       .  A
O1375      C1382   1.268       .  A
O1376      C1383   1.273       .  A
O1377      C1384   1.272       .  A
O1378      C1384   1.287       .  A
C1380      C1409   1.445       .  S
C1381      C1396   1.484       .  S
C1383      C1389   1.480       .  S
C1385      C1386   1.404       .  A
C1385      C1390   1.401       .  A
C1385      H1392   1.083       .  S
C1386      C1387   1.406       .  A
C1387      C1388   1.398       .  A
C1387      F1394   1.358       .  S
C1388      C1389   1.405       .  A
C1388      H1393   1.084       .  S
C1389      C1390   1.408       .  A
C1390      F1391   1.357       .  S
C1395      C1396   1.407       .  A
C1395      C1400   1.404       .  A
C1395      H1402   1.083       .  S
C1396      C1397   1.411       .  A
C1397      C1398   1.393       .  A
C1397      F1404   1.358       .  S
C1398      C1399   1.399       .  A
C1398      H1403   1.084       .  S
C1399      C1400   1.405       .  A
C1400      F1401   1.357       .  S
C1405      C1406   1.396       .  A
C1405      C1410   1.388       .  A
C1405      H1412   1.084       .  S
C1407      C1408   1.390       .  A
C1407      F1414   1.358       .  S
C1408      C1409   1.398       .  A
C1408      H1413   1.083       .  S
C1410      F1411   1.358       .  S
C1415      C1416   1.401       .  A
C1415      C1420   1.392       .  A
C1415      H1422   1.084       .  S
C1416      C1417   1.405       .  A
C1417      C1418   1.401       .  A
C1417      F1424   1.357       .  S
C1418      C1419   1.405       .  A
C1418      H1423   1.084       .  S
C1419      C1420   1.406       .  A
C1420      F1421   1.358       .  S
C1425      C1426   1.408       .  A
C1425      C1430   1.404       .  A
C1425      H1432   1.083       .  S
C1426      C1427   1.409       .  A
C1427      C1428   1.395       .  A
C1427      F1434   1.358       .  S
C1428      C1429   1.406       .  A
C1428      H1433   1.084       .  S
C1429      C1430   1.409       .  A
C1430      F1431   1.357       .  S
C1435      C1436   1.401   1_556  A
C1435      C1440   1.390       .  A
C1435      H1442   1.083       .  S
C1437      C1438   1.388       .  A
C1437      F1444   1.358       .  S
C1438      C1439   1.401       .  A
C1438      H1443   1.083       .  S
C1440      F1441   1.358       .  S
C1445      C1446   1.406       .  A
C1445      C1450   1.395       .  A
C1445      H1452   1.083       .  S
C1446      C1447   1.411       .  A
C1447      C1448   1.406       .  A
C1447      F1454   1.357       .  S
C1448      C1449   1.408       .  A
C1448      H1453   1.082       .  S
C1449      C1450   1.410       .  A
C1450      F1451   1.358       .  S
C1455      C1456   1.406       .  A
C1455      C1460   1.399       .  A
C1455      H1462   1.083       .  S
C1456      C1457   1.408       .  A
C1457      C1458   1.391       .  A
C1457      F1464   1.358       .  S
C1458      C1459   1.405       .  A
C1458      H1463   1.084       .  S
C1459      C1460   1.408       .  A
C1460      F1461   1.357       .  S
C1465      C1466   1.400       .  A
C1465      H1472   1.083       .  S
C1466      C1467   1.405       .  A
C1467      C1468   1.390       .  A
C1467      F1474   1.358       .  S
C1468      H1473   1.083       .  S
C1469      C1470   1.405       .  A
C1470      F1471   1.358       .  S
C1475      C1476   1.406       .  A
C1475      C1480   1.400       .  A
C1475      H1482   1.084       .  S
C1476      C1477   1.409       .  A
C1477      C1478   1.394       .  A
C1477      F1484   1.358       .  S
C1478      C1479   1.405       .  A
C1478      H1483   1.084       .  S
C1479      C1480   1.409       .  A
C1480      F1481   1.357       .  S
C1485      C1486   1.404       .  A
C1485      C1490   1.393       .  A
C1485      H1492   1.083       .  S
C1486      C1487   1.409       .  A
C1487      C1488   1.404       .  A
C1487      F1494   1.357       .  S
C1488      C1489   1.407       .  A
C1488      H1493   1.083       .  S
C1489      C1490   1.408       .  A
C1490      F1491   1.358       .  S
C1495      C1496   1.401   1_554  A
C1495      H1502   1.082       .  S
C1496      C1497   1.406       .  A
C1497      C1498   1.390       .  A
C1497      F1504   1.358       .  S
C1498      H1503   1.082       .  S
C1499      C1500   1.406   1_556  A
C1500      F1501   1.358       .  S
