geometry optimzed in LAMMPS
_audit_creation_date              2020-11-30 
_audit_creation_method            'lammps2cif' 
_symmetry_space_group_name_H-M    'P1' 
_symmetry_Int_Tables_number       1 
_symmetry_cell_setting            triclinic 
loop_ 
_symmetry_equiv_pos_as_xyz 
  x,y,z 
_cell_length_a                    56.0050989 
_cell_length_b                    56.018194106036475 
_cell_length_c                    55.965380740129426 
_cell_angle_alpha                 89.79403944190777 
_cell_angle_beta                  89.98323618672183 
_cell_angle_gamma                 89.9000671403806 
loop_ 
_atom_site_label 
_atom_site_type_symbol 
_atom_site_fract_x 
_atom_site_fract_y 
_atom_site_fract_z 
_atom_site_charge 
C1          C  0.14654906  0.75381904  0.97848280     0.80900
N2          N  0.12430070  0.76344912  0.97857611    -0.77400
C3          C  0.11392682  0.77056821  0.99930343     0.83400
N4          N  0.12599197  0.76784061  0.02018686    -0.77300
C5          C  0.14823789  0.75808973  0.02041788     0.83400
N6          N  0.15835694  0.75118091  0.99948932    -0.79100
C7          C  0.33361096  0.60143454  0.02196655     0.80900
N8          N  0.33674607  0.57736414  0.02177433    -0.77400
C9          C  0.33821018  0.56527368  0.00082428     0.83400
N10         N  0.33596900  0.57744923  0.97994740    -0.77300
C11         C  0.33249068  0.60145147  0.97970203     0.83400
N12         N  0.33151613  0.61340586  0.00083717    -0.79100
C13         C  0.90895170  0.18436339  0.02772940     0.80900
N14         N  0.89770251  0.18889608  0.00667677    -0.77400
C15         C  0.90891995  0.18482766  0.98549445     0.83400
N16         N  0.93139922  0.17560716  0.98568947    -0.77300
C17         C  0.94273218  0.17083509  0.00666728     0.83400
N18         N  0.93147320  0.17549858  0.02759463    -0.79100
C19         C  0.73280823  0.34940993  0.98346649     0.80900
N20         N  0.73265614  0.37361726  0.98416069    -0.77400
C21         C  0.73502877  0.38547522  0.00511709     0.83400
N22         N  0.73745438  0.37275083  0.02569705    -0.77300
C23         C  0.73760219  0.34844081  0.02542922     0.83400
N24         N  0.73529181  0.33692097  0.00421658    -0.79100
C25         C  0.82870609  0.95119027  0.12994993     0.80900
N26         N  0.83567486  0.95084674  0.10675744    -0.77400
C27         C  0.83898213  0.97150575  0.09451314     0.83400
N28         N  0.83524075  0.99265369  0.10563466    -0.77300
C29         C  0.82835790  0.99330515  0.12884631     0.83400
N30         N  0.82504264  0.97248939  0.14093863    -0.79100
C31         C  0.65353395  0.99102048  0.30332856     0.80900
N32         N  0.66538467  0.96980469  0.30458576    -0.77400
C33         C  0.65336640  0.94886713  0.30184340     0.83400
N34         N  0.62951937  0.94939011  0.29750794    -0.77300
C35         C  0.61757518  0.97038734  0.29590944     0.83400
N36         N  0.62968383  0.99111297  0.29892416    -0.79100
C37         C  0.24134416  0.99482973  0.87396919     0.80900
N38         N  0.24635341  0.97358711  0.86359189    -0.77400
C39         C  0.24219377  0.95276262  0.87530533     0.83400
N40         N  0.23297060  0.95337225  0.89774753    -0.77300
C41         C  0.22791865  0.97452276  0.90842899     0.83400
N42         N  0.23211384  0.99516515  0.89637313    -0.79100
C43         C  0.39689815  0.95417738  0.70483600     0.80900
N44         N  0.38545598  0.97560668  0.70502557    -0.77400
C45         C  0.39802731  0.99629446  0.70704492     0.83400
N46         N  0.42225300  0.99526812  0.70888697    -0.77300
C47         C  0.43386980  0.97395828  0.70851299     0.83400
N48         N  0.42110104  0.95350945  0.70651612    -0.79100
C49         C  0.90373030  0.76289983  0.02465460     0.80900
N50         N  0.92639941  0.77139772  0.02498758    -0.77400
C51         C  0.93806908  0.77633410  0.00430544     0.83400
N52         N  0.92686830  0.77248365  0.98314732    -0.77300
C53         C  0.90409431  0.76426046  0.98257920     0.83400
N54         N  0.89263524  0.75940133  0.00339923    -0.79100
C55         C  0.72874360  0.60233053  0.02299973     0.80900
N56         N  0.72924446  0.61463849  0.00198756    -0.77400
C57         C  0.72911135  0.60291916  0.98070331     0.83400
N58         N  0.72874850  0.57860969  0.98056366    -0.77300
C59         C  0.72853362  0.56608324  0.00145211     0.83400
N60         N  0.72842098  0.57812326  0.02243800    -0.79100
C61         C  0.15072542  0.17907736  0.97793544     0.80900
N62         N  0.16105245  0.18348016  0.99942698    -0.77400
C63         C  0.14945275  0.17789018  0.02005645     0.83400
N64         N  0.12745164  0.16789410  0.01900705    -0.77300
C65         C  0.11695957  0.16349431  0.99765206     0.83400
N66         N  0.12854062  0.16941753  0.97719986    -0.79100
C67         C  0.33391162  0.34873858  0.97811921     0.80900
N68         N  0.33626797  0.37287373  0.97827418    -0.77400
C69         C  0.33742156  0.38495721  0.99924864     0.83400
N70         N  0.33617494  0.37262782  0.02013208    -0.77300
C71         C  0.33395550  0.34849295  0.02032547     0.83400
N72         N  0.33261180  0.33660561  0.99919856    -0.79100
C73         C  0.82805901  0.95690986  0.88250158     0.80900
N74         N  0.82693323  0.97819756  0.87084332    -0.77400
C75         C  0.83256174  0.99888677  0.88208517     0.83400
N76         N  0.83915579  0.99809610  0.90535723    -0.77300
C77         C  0.84042735  0.97701067  0.91725831     0.83400
N78         N  0.83492623  0.95644956  0.90576334    -0.79100
C79         C  0.64988845  0.99953848  0.70958411     0.80900
N80         N  0.66288854  0.97958599  0.70510014    -0.77400
C81         C  0.65214366  0.95813067  0.70222093     0.83400
N82         N  0.62794328  0.95677769  0.70385479    -0.77300
C83         C  0.61455411  0.97654609  0.70833177     0.83400
N84         N  0.62573242  0.99790006  0.71120787    -0.79100
C85         C  0.23475554  0.99614927  0.12072905     0.80900
N86         N  0.22795944  0.99564240  0.09738355    -0.77400
C87         C  0.22510536  0.97444393  0.08591785     0.83400
N88         N  0.22931052  0.95375486  0.09791115    -0.77300
C89         C  0.23601822  0.95398497  0.12115950     0.83400
N90         N  0.23874197  0.97522224  0.13236352    -0.79100
C91         C  0.40172266  0.95607301  0.29402195     0.80900
N92         N  0.42580827  0.95601223  0.29174218    -0.77400
C93         C  0.43814807  0.97672988  0.28978427     0.83400
N94         N  0.42612563  0.99787064  0.29035444    -0.77300
C95         C  0.40189716  0.99832650  0.29260163     0.83400
N96         N  0.38984398  0.97727456  0.29424738    -0.79100
C97         C  0.00573158  0.09364118  0.79372815     0.80900
N98         N  0.00604805  0.07143681  0.80340860    -0.77400
C99         C  0.02707193  0.06032686  0.80837005     0.83400
N100        N  0.04802521  0.07176590  0.80352619    -0.77300
C101        C  0.04791771  0.09410646  0.79373871     0.83400
N102        N  0.02664620  0.10472181  0.78878093    -0.79100
C103        C  0.00327297  0.27767904  0.62881137     0.80900
N104        N  0.02443045  0.27768290  0.64065250    -0.77400
C105        C  0.04535234  0.27778945  0.62846982     0.83400
N106        N  0.04503303  0.27772570  0.60424772    -0.77300
C107        C  0.02408428  0.27740436  0.59212025     0.83400
N108        N  0.00321278  0.27734146  0.60451326    -0.79100
C109        C  0.04806013  0.84880725  0.80344407     0.80900
N110        N  0.02649430  0.83825289  0.80043767    -0.77400
C111        C  0.00603044  0.85000333  0.80581894     0.83400
N112        N  0.00715875  0.87260017  0.81439600    -0.77300
C113        C  0.02856019  0.88341167  0.81787632     0.83400
N114        N  0.04895083  0.87144720  0.81214299    -0.79100
C115        C  0.00728325  0.67608627  0.63082732     0.80900
N116        N  0.02899308  0.67389336  0.64165520    -0.77400
C117        C  0.04930053  0.67254913  0.62829527     0.83400
N118        N  0.04769667  0.67364268  0.60417079    -0.77300
C119        C  0.02628995  0.67572495  0.59309628     0.83400
N120        N  0.00609467  0.67696237  0.60652024    -0.79100
C121        C  0.04760195  0.85265217  0.21386194     0.80900
N122        N  0.02657621  0.84060232  0.21520020    -0.77400
C123        C  0.00563491  0.85197869  0.21038854     0.83400
N124        N  0.00583297  0.87539832  0.20399293    -0.77300
C125        C  0.02677600  0.88744111  0.20220569     0.83400
N126        N  0.04750412  0.87598546  0.20733392    -0.79100
C127        C  0.05039369  0.68148856  0.37690940     0.80900
N128        N  0.02968424  0.68083042  0.36426032    -0.77400
C129        C  0.00835667  0.68105479  0.37577793     0.83400
N130        N  0.00782974  0.68219696  0.39993488    -0.77300
C131        C  0.02827086  0.68269582  0.41285965     0.83400
N132        N  0.04963732  0.68228736  0.40122019    -0.79100
C133        C  0.00324145  0.09810885  0.20762190     0.80900
N134        N  0.00364822  0.07529594  0.19993987    -0.77400
C135        C  0.02435714  0.06467567  0.19337031     0.83400
N136        N  0.04510765  0.07720607  0.19490962    -0.77300
C137        C  0.04501985  0.10026002  0.20266385     0.83400
N138        N  0.02392945  0.11057471  0.20890080    -0.79100
C139        C  0.04798333  0.27414350  0.37561540     0.80900
N140        N  0.02691116  0.27402461  0.36359212    -0.77400
C141        C  0.00589288  0.27339504  0.37567110     0.83400
N142        N  0.00604334  0.27307959  0.39990371    -0.77300
C143        C  0.02692982  0.27293625  0.41217756     0.83400
N144        N  0.04788882  0.27339542  0.39992154    -0.79100
C145        C  0.31461437  0.49642757  0.37527870     0.80900
N146        N  0.31058464  0.47517565  0.36450893    -0.77400
C147        C  0.31536427  0.45430142  0.37603005     0.83400
N148        N  0.32428722  0.45490067  0.39869409    -0.77300
C149        C  0.32831691  0.47620628  0.40958633     0.83400
N150        N  0.32345231  0.49672089  0.39773971    -0.79100
C151        C  0.15124611  0.45667587  0.19383398     0.80900
N152        N  0.16380520  0.47750670  0.19295497    -0.77400
C153        C  0.15230788  0.49889439  0.19062535     0.83400
N154        N  0.12801363  0.49919379  0.18930430    -0.77300
C155        C  0.11522890  0.47862012  0.19025009     0.83400
N156        N  0.12703745  0.45755171  0.19258855    -0.79100
O157        O  0.25658679  0.73815388  0.17624238    -0.85800
O158        O  0.22704206  0.70028302  0.30310711    -0.86000
O159        O  0.22543323  0.67414617  0.22298218    -0.87600
O160        O  0.20315804  0.74708206  0.24053729    -0.86400
O161        O  0.22213229  0.78090495  0.25381134    -0.86000
O162        O  0.26095541  0.65383298  0.22546768    -0.87400
O163        O  0.20615149  0.70197474  0.26794054    -0.85800
O164        O  0.22297568  0.72337382  0.19433716    -0.85400
Zr165      Zr  0.23283514  0.71544839  0.23619947     2.84300
O166        O  0.24327050  0.73630548  0.27094423    -1.07400
O167        O  0.26732621  0.70586391  0.21455991    -1.08100
C168        C  0.23450536  0.73169998  0.17607405     1.07300
C169        C  0.20768775  0.69819467  0.29070478     1.07300
C170        C  0.23832884  0.65498182  0.22106626     1.10200
C171        C  0.20353313  0.76928281  0.24673297     1.08000
H172        H  0.24856417  0.67706545  0.26495751     0.33600
O173        O  0.25711565  0.69149345  0.26034345    -1.28300
H174        H  0.24370578  0.76046464  0.21619893     0.33200
O175        O  0.25375655  0.75033170  0.22607364    -1.30000
O176        O  0.30001308  0.71583590  0.32393356    -0.85800
O177        O  0.32979288  0.75322737  0.19696029    -0.87300
O178        O  0.29042397  0.65289315  0.27060118    -0.85900
O179        O  0.25116277  0.77862877  0.30189867    -0.85900
O180        O  0.26709355  0.80025696  0.22904151    -0.85600
O181        O  0.30467879  0.67412318  0.19770235    -0.85400
O182        O  0.35247923  0.70484964  0.26079792    -0.85800
O183        O  0.33053958  0.77896864  0.27384864    -0.85300
O184        O  0.33290884  0.67229223  0.24567971    -0.86300
O185        O  0.29474316  0.79891845  0.27352370    -0.85500
O186        O  0.27616121  0.67088583  0.30440039    -0.85900
O187        O  0.30265606  0.70982659  0.17773234    -0.85600
O188        O  0.28232038  0.78261332  0.19547240    -0.85300
O189        O  0.25432713  0.74324333  0.32238530    -0.85700
O190        O  0.33266320  0.73168322  0.30489893    -0.86000
O191        O  0.35055464  0.75154440  0.23221001    -0.87300
Zr192      Zr  0.26802404  0.71253418  0.29475435     2.83100
Zr193      Zr  0.28867200  0.74061292  0.20503437     2.83500
Zr194      Zr  0.29146566  0.68190951  0.23862939     2.84100
Zr195      Zr  0.26400810  0.77102219  0.26082135     2.83400
Zr196      Zr  0.32325499  0.73726054  0.26300557     2.84200
O197        O  0.29874520  0.76151609  0.23952914    -1.07900
O198        O  0.30241372  0.70248817  0.27328119    -1.07400
C199        C  0.32161502  0.72383603  0.32357567     1.07300
C200        C  0.34907618  0.75549752  0.20949208     1.09900
C201        C  0.28433577  0.65272527  0.29281032     1.07500
C202        C  0.24963427  0.76581721  0.32111381     1.07800
C203        C  0.27405109  0.80073197  0.20707286     1.07400
C204        C  0.30682052  0.68715317  0.17868820     1.06900
C205        C  0.35169862  0.68299781  0.25342977     1.07400
C206        C  0.31761490  0.79798740  0.27636144     1.06900
H207        H  0.32713296  0.71177849  0.21964833     0.33600
O208        O  0.31291391  0.71623270  0.22848696    -1.29000
H209        H  0.29329028  0.75620907  0.29872400     0.33600
O210        O  0.28883636  0.74733202  0.28454164    -1.30400
C211        C  0.40256155  0.21651921  0.47653132     0.80900
N212        N  0.39044545  0.21824278  0.49740610    -0.77400
C213        C  0.40104521  0.21239423  0.51833551     0.83400
N214        N  0.42399769  0.20478960  0.51835766    -0.77300
C215        C  0.43628641  0.20268188  0.49763177     0.83400
N216        N  0.42550154  0.20868540  0.47674442    -0.79100
C217        C  0.22293387  0.10191217  0.47827488     0.80900
N218        N  0.22754405  0.11340963  0.49910736    -0.77400
C219        C  0.22972678  0.10112725  0.51996047     0.83400
N220        N  0.22706440  0.07704213  0.51995096    -0.77300
C221        C  0.22233059  0.06518328  0.49935309     0.83400
N222        N  0.22045373  0.07771987  0.47852633    -0.79100
O223        O  0.26429624  0.15243690  0.76945126    -0.85800
O224        O  0.30033381  0.27949045  0.80168170    -0.86000
O225        O  0.32624806  0.20038567  0.80227820    -0.87600
O226        O  0.25298749  0.21585499  0.82345164    -0.86400
O227        O  0.21914276  0.22917016  0.80430342    -0.86000
O228        O  0.34665579  0.20315596  0.76694395    -0.87400
O229        O  0.29818427  0.24385137  0.82178416    -0.85800
O230        O  0.27929265  0.17001266  0.80319839    -0.85400
Zr231      Zr  0.28496886  0.21263619  0.79438021     2.84300
O232        O  0.26375931  0.24721924  0.78402327    -1.07400
O233        O  0.29497366  0.19218466  0.75955462    -1.08100
C234        C  0.27161912  0.15175384  0.79129537     1.07300
C235        C  0.30243063  0.26653095  0.82077350     1.07300
C236        C  0.34548464  0.19878487  0.78955856     1.10200
C237        C  0.23071634  0.22175315  0.82288254     1.08000
H238        H  0.32336506  0.24207092  0.77970138     0.33600
O239        O  0.30910225  0.23751901  0.77097824    -1.28300
H240        H  0.24038889  0.19211138  0.78292793     0.33200
O241        O  0.25037328  0.20230960  0.77307113    -1.30000
O242        O  0.28694060  0.30104304  0.72787691    -0.85800
O243        O  0.25061583  0.17466152  0.69601616    -0.87300
O244        O  0.34786922  0.24933335  0.73716657    -0.85900
O245        O  0.22128750  0.27743658  0.77635576    -0.85900
O246        O  0.20034613  0.20480622  0.75949298    -0.85600
O247        O  0.32761267  0.17500862  0.72669479    -0.85400
O248        O  0.29633034  0.23815280  0.67553853    -0.85800
O249        O  0.22306657  0.25322519  0.69629603    -0.85300
O250        O  0.32884532  0.22175140  0.69436213    -0.86300
O251        O  0.20241332  0.25116333  0.73163115    -0.85500
O252        O  0.32944670  0.28239157  0.75260932    -0.85900
O253        O  0.29217207  0.15449102  0.72642012    -0.85600
O254        O  0.21858079  0.17153289  0.74432352    -0.85300
O255        O  0.25640889  0.29842823  0.77492436    -0.85700
O256        O  0.27170197  0.28316758  0.69431773    -0.86000
O257        O  0.25225402  0.21055909  0.67630653    -0.87300
Zr258      Zr  0.28781821  0.27198705  0.76045688     2.83100
Zr259      Zr  0.26059056  0.18206514  0.73797914     2.83500
Zr260      Zr  0.31923644  0.21670177  0.73628518     2.84100
Zr261      Zr  0.22941015  0.23696881  0.76265191     2.83400
Zr262      Zr  0.26415004  0.24129969  0.70443944     2.84200
O263        O  0.23946604  0.21664498  0.72758440    -1.07900
O264        O  0.29848562  0.25140260  0.72581315    -1.07400
C265        C  0.28055540  0.30117525  0.70567823     1.07300
C266        C  0.24939065  0.18769970  0.67689584     1.09900
C267        C  0.34774225  0.27140882  0.74375629     1.07500
C268        C  0.23376657  0.29662625  0.77905198     1.07800
C269        C  0.20019556  0.18277726  0.75268522     1.07400
C270        C  0.31511192  0.15577177  0.72438228     1.06900
C271        C  0.31782264  0.22979492  0.67575884     1.07400
C272        C  0.20387988  0.25528726  0.70895541     1.06900
H273        H  0.29008468  0.19774424  0.70062165     0.33600
O274        O  0.28513776  0.20647312  0.71470258    -1.29000
H275        H  0.24453690  0.27626284  0.73455435     0.33600
O276        O  0.25331868  0.26192835  0.73902511    -1.30400
C277        C  0.40474972  0.75528583  0.47814305     0.80900
N278        N  0.39296241  0.75294434  0.49909536    -0.77400
C279        C  0.40420430  0.75656395  0.52020217     0.83400
N280        N  0.42767708  0.76281308  0.52021638    -0.77300
C281        C  0.43960906  0.76530305  0.49920660     0.83400
N282        N  0.42807652  0.76139608  0.47832859    -0.79100
C283        C  0.21733002  0.84770878  0.52040598     0.80900
N284        N  0.21889692  0.83643003  0.49894343    -0.77400
C285        C  0.21810330  0.84906113  0.47812728     0.83400
N286        N  0.21592491  0.87321589  0.47897972    -0.77300
C287        C  0.21433251  0.88476064  0.50024001     0.83400
N288        N  0.21510282  0.87189990  0.52090660    -0.79100
C289        C  0.31449784  0.49709077  0.61633251     0.80900
N290        N  0.32542163  0.49653896  0.59468852    -0.77400
C291        C  0.33046401  0.47535865  0.58398556     0.83400
N292        N  0.32474022  0.45466048  0.59542437    -0.77300
C293        C  0.31419451  0.45497656  0.61730624     0.83400
N294        N  0.30892599  0.47630040  0.62750291    -0.79100
C295        C  0.15074249  0.45319073  0.80859309     0.80900
N296        N  0.16332799  0.47389836  0.80696194    -0.77400
C297        C  0.15194122  0.49530593  0.80582387     0.83400
N298        N  0.12771247  0.49574673  0.80596096    -0.77300
C299        C  0.11480161  0.47533321  0.80747205     0.83400
N300        N  0.12644887  0.45403183  0.80882140    -0.79100
O301        O  0.25317228  0.73436632  0.82264088    -0.85800
O302        O  0.22622388  0.69315463  0.69629786    -0.86000
O303        O  0.20127757  0.74214332  0.76103894    -0.87600
O304        O  0.22524319  0.66964993  0.77393505    -0.86400
O305        O  0.26140760  0.65018790  0.77348141    -0.86000
O306        O  0.21819781  0.77623647  0.74600587    -0.87400
O307        O  0.20561801  0.69513139  0.73162250    -0.85800
O308        O  0.22090746  0.71751607  0.80412805    -0.85400
Zr309      Zr  0.23159333  0.71098711  0.76237212     2.84300
O310        O  0.25704051  0.68771599  0.73895473    -1.07400
O311        O  0.25086080  0.74632420  0.77243379    -1.08100
C312        C  0.23152710  0.72647135  0.82252646     1.07300
C313        C  0.20724198  0.69029381  0.70914647     1.07300
C314        C  0.20049340  0.76440045  0.75493081     1.10200
C315        C  0.23847811  0.65091113  0.77636972     1.08000
H316        H  0.22600616  0.73602200  0.71860553     0.33600
O317        O  0.24052850  0.73224441  0.72738827    -1.28300
H318        H  0.26170197  0.69293204  0.79824569     0.33200
O319        O  0.26614867  0.70178270  0.78393276    -1.30000
O320        O  0.29755655  0.71546848  0.67469640    -0.85800
O321        O  0.32663219  0.74881901  0.80262565    -0.87300
O322        O  0.24767088  0.77417869  0.69623610    -0.85900
O323        O  0.29079222  0.64951152  0.72829745    -0.85900
O324        O  0.30445672  0.67186317  0.80214375    -0.85600
O325        O  0.26050994  0.79658561  0.76976378    -0.85400
O326        O  0.32608361  0.77760487  0.72288386    -0.85800
O327        O  0.35113538  0.70617268  0.73824349    -0.85300
O328        O  0.28972793  0.79635427  0.72350235    -0.86300
O329        O  0.33444972  0.67163103  0.75293523    -0.85500
O330        O  0.25099921  0.73883445  0.67601872    -0.85900
O331        O  0.27642104  0.77872016  0.80308611    -0.85600
O332        O  0.29905834  0.70718325  0.82210162    -0.85300
O333        O  0.27501205  0.66721402  0.69473586    -0.85700
O334        O  0.33013846  0.73129705  0.69384175    -0.86000
O335        O  0.34728665  0.74921256  0.76723079    -0.87300
Zr336      Zr  0.26618113  0.70887133  0.70405700     2.83100
Zr337      Zr  0.28550370  0.73735708  0.79387495     2.83500
Zr338      Zr  0.26014364  0.76761810  0.73767903     2.84100
Zr339      Zr  0.29191339  0.67877945  0.76041202     2.83400
Zr340      Zr  0.32017444  0.73621182  0.73578775     2.84200
O341        O  0.31105516  0.71444894  0.77037631    -1.07900
O342        O  0.28546773  0.74448010  0.71415268    -1.07400
C343        C  0.31898243  0.72394292  0.67508984     1.07300
C344        C  0.34589660  0.75143995  0.79015955     1.09900
C345        C  0.24613102  0.76139415  0.67707913     1.07500
C346        C  0.28401870  0.64925364  0.70621862     1.07800
C347        C  0.30456732  0.68481322  0.82132237     1.07400
C348        C  0.26733487  0.79670085  0.79179397     1.06900
C349        C  0.31253144  0.79610768  0.71985414     1.07400
C350        C  0.35213694  0.68412680  0.74481487     1.06900
H351        H  0.30320596  0.77406171  0.76412323     0.33600
O352        O  0.29507122  0.75938098  0.75954827    -1.29000
H353        H  0.31180245  0.69099553  0.71542647     0.33600
O354        O  0.30122199  0.70034505  0.72546704    -1.30400
C355        C  0.74984725  0.44872323  0.38506419     0.80900
N356        N  0.74411072  0.45006875  0.40857649    -0.77400
C357        C  0.74123826  0.47155765  0.41936317     0.83400
N358        N  0.74419558  0.49191050  0.40640148    -0.77300
C359        C  0.75026811  0.49082142  0.38290129     0.83400
N360        N  0.75298681  0.46920145  0.37243207    -0.79100
C361        C  0.89740030  0.49227703  0.19568205     0.80900
N362        N  0.88618679  0.47085692  0.19822479    -0.77400
C363        C  0.89897482  0.45012495  0.19791162     0.83400
N364        N  0.92313776  0.45101857  0.19511741    -0.77300
C365        C  0.93446126  0.47232793  0.19235487     0.83400
N366        N  0.92143283  0.49271591  0.19276967    -0.79100
C367        C  0.54852072  0.59694808  0.22623732     0.80900
N368        N  0.52759597  0.60823244  0.23095774    -0.77400
C369        C  0.50642821  0.59704451  0.22767962     0.83400
N370        N  0.50629764  0.57418591  0.21983185    -0.77300
C371        C  0.52702403  0.56261790  0.21494066     0.83400
N372        N  0.54811424  0.57406714  0.21827844    -0.79100
C373        C  0.55021286  0.76138993  0.12763744     0.80900
N374        N  0.52914006  0.76349554  0.13954896    -0.77400
C375        C  0.50825727  0.76550736  0.12731145     0.83400
N376        N  0.50856352  0.76479459  0.10306686    -0.77300
C377        C  0.52939075  0.76216207  0.09087720     0.83400
N378        N  0.55024352  0.76063515  0.10330230    -0.79100
O379        O  0.79263431  0.79589405  0.23414933    -0.85800
O380        O  0.75233083  0.67106391  0.20101420    -0.86000
O381        O  0.79872645  0.73500777  0.18014073    -0.87600
O382        O  0.72603497  0.74842725  0.20309565    -0.86400
O383        O  0.70613944  0.74595325  0.23878957    -0.86000
O384        O  0.83224926  0.71918899  0.19750010    -0.87400
O385        O  0.75497423  0.70713915  0.18153339    -0.85800
O386        O  0.77764014  0.77870532  0.20021816    -0.85400
Zr387      Zr  0.76765966  0.73721476  0.20986939     2.84300
O388        O  0.74382738  0.71260868  0.23354395    -1.07400
O389        O  0.80262278  0.74630515  0.23042563    -1.08100
C390        C  0.78690963  0.79632844  0.21186127     1.07300
C391        C  0.75108785  0.68445280  0.18212146     1.07300
C392        C  0.82065045  0.72803398  0.17958186     1.10200
C393        C  0.70691806  0.74964507  0.21603055     1.08000
H394        H  0.79297693  0.69358485  0.20434310     0.33600
O395        O  0.78858105  0.70194961  0.21869389    -1.28300
H396        H  0.74940192  0.77208785  0.24056207     0.33200
O397        O  0.75797217  0.75772467  0.24476185    -1.30000
O398        O  0.76853939  0.64718549  0.27348862    -0.85800
O399        O  0.80674342  0.77282876  0.30625024    -0.87300
O400        O  0.83089208  0.67031025  0.22708399    -0.85900
O401        O  0.70435264  0.70221665  0.26421848    -0.85900
O402        O  0.72716153  0.77340938  0.28213540    -0.85600
O403        O  0.85258838  0.74327570  0.24039793    -0.85400
O404        O  0.83191332  0.69400863  0.30460880    -0.85800
O405        O  0.75905709  0.71056014  0.32903138    -0.85300
O406        O  0.85157926  0.69699472  0.26882958    -0.86300
O407        O  0.72540769  0.72504423  0.31037007    -0.85500
O408        O  0.79527869  0.65028812  0.22875717    -0.85900
O409        O  0.83448053  0.77671906  0.25567944    -0.85600
O410        O  0.76251345  0.79379981  0.27978556    -0.85300
O411        O  0.72240939  0.66894650  0.24850594    -0.85700
O412        O  0.78456774  0.66431293  0.30700786    -0.86000
O413        O  0.80498880  0.73733992  0.32666082    -0.87300
Zr414      Zr  0.76460202  0.67762003  0.24265834     2.83100
Zr415      Zr  0.79322787  0.76636311  0.26556881     2.83500
Zr416      Zr  0.82337626  0.71135091  0.23942230     2.84100
Zr417      Zr  0.73463904  0.73272844  0.26879781     2.83400
Zr418      Zr  0.79045684  0.70693221  0.29889717     2.84200
O419        O  0.76949523  0.74200940  0.28970582    -1.07900
O420        O  0.79959637  0.68693865  0.26343332    -1.07400
C421        C  0.77648613  0.64623176  0.29513033     1.07300
C422        C  0.80904594  0.76006090  0.32535714     1.09900
C423        C  0.81798612  0.65134492  0.22491097     1.07500
C424        C  0.70406152  0.68072339  0.25605141     1.07800
C425        C  0.73988029  0.79250646  0.28418207     1.07400
C426        C  0.85245212  0.76544506  0.24655096     1.06900
C427        C  0.85081550  0.69231509  0.29138205     1.07400
C428        C  0.73698726  0.71739127  0.32877228     1.06900
H429        H  0.82881872  0.73587672  0.28321498     0.33600
O430        O  0.81438462  0.73158305  0.27491893    -1.29000
H431        H  0.74519855  0.68728963  0.28812313     0.33600
O432        O  0.75514326  0.69740744  0.27831576    -1.30400
C433        C  0.64411809  0.72408414  0.52425783     0.80900
N434        N  0.62246235  0.73487551  0.52390378    -0.77400
C435        C  0.61172028  0.74052147  0.50295491     0.83400
N436        N  0.62278687  0.73516972  0.48211872    -0.77300
C437        C  0.64446767  0.72433959  0.48205062     0.83400
N438        N  0.65509569  0.71898142  0.50322954    -0.79100
C439        C  0.83523974  0.84773606  0.52301767     0.80900
N440        N  0.83252650  0.83544824  0.50230040    -0.77400
C441        C  0.83250593  0.84727521  0.48098876     0.83400
N442        N  0.83528931  0.87144308  0.48058376    -0.77300
C443        C  0.83790237  0.88382299  0.50125712     0.83400
N444        N  0.83778267  0.87174266  0.52224566    -0.79100
C445        C  0.55054890  0.60258108  0.71008171     0.80900
N446        N  0.55037131  0.57916935  0.70368002    -0.77400
C447        C  0.52931333  0.56748383  0.70068829     0.83400
N448        N  0.50852844  0.57935564  0.70444427    -0.77300
C449        C  0.50851068  0.60265082  0.71075544     0.83400
N450        N  0.52953877  0.61415607  0.71358514    -0.79100
C451        C  0.50498992  0.77059893  0.87405284     0.80900
N452        N  0.52568406  0.77482422  0.86191523    -0.77400
C453        C  0.54685347  0.77626945  0.87377757     0.83400
N454        N  0.54708699  0.77335726  0.89787268    -0.77300
C455        C  0.52674619  0.76912646  0.91030665     0.83400
N456        N  0.50574048  0.76772663  0.89823318    -0.79100
C457        C  0.75264215  0.45712386  0.62864499     0.80900
N458        N  0.74340535  0.45749187  0.60616439    -0.77400
C459        C  0.73617207  0.47834794  0.59601272     0.83400
N460        N  0.73816109  0.49883889  0.60858517    -0.77300
C461        C  0.74712316  0.49879937  0.63108124     0.83400
N462        N  0.75442331  0.47788113  0.64099587    -0.79100
C463        C  0.89781424  0.50016523  0.79805452     0.80900
N464        N  0.88628724  0.47870914  0.79839772    -0.77400
C465        C  0.89900584  0.45794741  0.79986202     0.83400
N466        N  0.92320521  0.45895172  0.80069432    -0.77300
C467        C  0.93482793  0.48015814  0.80040947     0.83400
N468        N  0.92203050  0.50062468  0.79910894    -0.79100
O469        O  0.79702517  0.74192449  0.82801720    -0.85800
O470        O  0.83081127  0.70489257  0.70225735    -0.86000
O471        O  0.82828858  0.67856040  0.78107841    -0.87600
O472        O  0.85155871  0.75032417  0.76515320    -0.86400
O473        O  0.83404289  0.78450503  0.75050540    -0.86000
O474        O  0.79235833  0.65932042  0.77839008    -0.87400
O475        O  0.85021777  0.70651643  0.73823868    -0.85800
O476        O  0.83062838  0.72703579  0.80960424    -0.85400
Zr477      Zr  0.82142284  0.71962583  0.76797534     2.84300
O478        O  0.81278533  0.74050387  0.73281926    -1.07400
O479        O  0.78627521  0.71104633  0.78877839    -1.08100
C480        C  0.81907864  0.73504810  0.82783058     1.07300
C481        C  0.84973993  0.70309095  0.71544765     1.07300
C482        C  0.81499170  0.65978941  0.78268733     1.10200
C483        C  0.85189405  0.77244789  0.75884289     1.08000
H484        H  0.80639811  0.68099340  0.73954758     0.33600
O485        O  0.79792251  0.69548896  0.74364999    -1.28300
H486        H  0.81109774  0.76460932  0.78732684     0.33200
O487        O  0.80096395  0.75489038  0.77731235    -1.30000
O488        O  0.75745915  0.71753537  0.67879922    -0.85800
O489        O  0.72395931  0.75985689  0.80366871    -0.87300
O490        O  0.76368755  0.65802027  0.73306808    -0.85900
O491        O  0.80665342  0.78222918  0.70121236    -0.85900
O492        O  0.79081135  0.80515899  0.77370322    -0.85600
O493        O  0.75065308  0.67996658  0.80551292    -0.85400
O494        O  0.70380163  0.71144919  0.73943568    -0.85800
O495        O  0.72651732  0.78443561  0.72631699    -0.85300
O496        O  0.72082436  0.67815299  0.75614807    -0.86300
O497        O  0.76230626  0.80420665  0.72790205    -0.85500
O498        O  0.78098320  0.67445927  0.69971471    -0.85900
O499        O  0.75196681  0.71530109  0.82600496    -0.85600
O500        O  0.77484364  0.78793861  0.80730289    -0.85300
O501        O  0.80403511  0.74654526  0.68145981    -0.85700
O502        O  0.72477723  0.73510658  0.69628708    -0.86000
O503        O  0.70465935  0.75675731  0.76763820    -0.87300
Zr504      Zr  0.78898341  0.71640793  0.70866069     2.83100
Zr505      Zr  0.76555090  0.74624252  0.79805598     2.83500
Zr506      Zr  0.76245416  0.68743839  0.76437631     2.84100
Zr507      Zr  0.79229116  0.77572281  0.74199241     2.83400
Zr508      Zr  0.73333800  0.74301895  0.73821380     2.84200
O509        O  0.75694211  0.76706642  0.76264195    -1.07900
O510        O  0.75366787  0.70785522  0.72912057    -1.07400
C511        C  0.73576178  0.72536429  0.67848141     1.07300
C512        C  0.70515041  0.76147682  0.79018884     1.09900
C513        C  0.77114594  0.65704272  0.71132168     1.07500
C514        C  0.80886073  0.76903948  0.68240825     1.07800
C515        C  0.78426509  0.80569412  0.79581141     1.07400
C516        C  0.74870367  0.69245421  0.82476202     1.06900
C517        C  0.70311701  0.68957550  0.74668075     1.07400
C518        C  0.73954402  0.80335190  0.72417842     1.06900
H519        H  0.72708862  0.71804575  0.78204275     0.33600
O520        O  0.74165332  0.72229312  0.77371917    -1.29000
H521        H  0.76437506  0.76056390  0.70294376     0.33600
O522        O  0.76838915  0.75197618  0.71743201    -1.30400
C523        C  0.50704584  0.34953347  0.22607004     0.80900
N524        N  0.50780104  0.37310659  0.22026857    -0.77400
C525        C  0.52900854  0.38491953  0.21985601     0.83400
N526        N  0.54938259  0.37292695  0.22520362    -0.77300
C527        C  0.54879732  0.34932672  0.23056478     0.83400
N528        N  0.52761310  0.33774778  0.23108303    -0.79100
C529        C  0.54756737  0.18299977  0.12619323     0.80900
N530        N  0.54680909  0.18549855  0.10204702    -0.77400
C531        C  0.52563404  0.18732274  0.09038842     0.83400
N532        N  0.50502183  0.18665395  0.10306779    -0.77300
C533        C  0.50531624  0.18396014  0.12720112     0.83400
N534        N  0.52669299  0.18213680  0.13871189    -0.79100
O535        O  0.79887571  0.20752846  0.18171324    -0.85800
O536        O  0.82780704  0.24513014  0.30841253    -0.86000
O537        O  0.82984834  0.27155997  0.23001522    -0.87600
O538        O  0.85016789  0.19826960  0.24724026    -0.86400
O539        O  0.83113822  0.16497217  0.26195581    -0.86000
O540        O  0.79458715  0.29220652  0.23197568    -0.87400
O541        O  0.84829964  0.24302334  0.27305474    -0.85800
O542        O  0.83230038  0.22150566  0.20088831    -0.85400
Zr543      Zr  0.82117044  0.23007475  0.24214845     2.84300
O544        O  0.81055550  0.20919724  0.27702262    -1.07400
O545        O  0.78722647  0.24018727  0.22007129    -1.08100
C546        C  0.82117276  0.21352635  0.18233683     1.07300
C547        C  0.84702944  0.24695504  0.29569795     1.07300
C548        C  0.81734245  0.29100423  0.22829960     1.10200
C549        C  0.84971088  0.17633911  0.25434273     1.08000
H550        H  0.80606413  0.26869294  0.27068658     0.33600
O551        O  0.79743675  0.25456191  0.26607850    -1.28300
H552        H  0.81013309  0.18529198  0.22317804     0.33200
O553        O  0.79992842  0.19539593  0.23266381    -1.30000
O554        O  0.75343116  0.23251196  0.32870522    -0.85800
O555        O  0.72429022  0.19367763  0.20230055    -0.87300
O556        O  0.76331913  0.29302025  0.27657864    -0.85900
O557        O  0.80131157  0.16772283  0.30949003    -0.85900
O558        O  0.78757107  0.14521354  0.23572875    -0.85600
O559        O  0.75294795  0.27218194  0.20237536    -0.85400
O560        O  0.70258324  0.24241102  0.26589299    -0.85800
O561        O  0.72248969  0.16864861  0.28192468    -0.85300
O562        O  0.72174018  0.27495361  0.25013659    -0.86300
O563        O  0.75790676  0.14802242  0.28217129    -0.85500
O564        O  0.77870733  0.27504812  0.31012422    -0.85900
O565        O  0.75404808  0.23675454  0.18195126    -0.85600
O566        O  0.77441931  0.16368516  0.20137360    -0.85300
O567        O  0.79984375  0.20353124  0.32911652    -0.85700
O568        O  0.72034699  0.21738425  0.30991032    -0.86000
O569        O  0.70361818  0.19628908  0.23752873    -0.87300
Zr570      Zr  0.78640175  0.23353907  0.30053707     2.83100
Zr571      Zr  0.76590729  0.20548474  0.21034230     2.83500
Zr572      Zr  0.76331836  0.26445343  0.24405918     2.84100
Zr573      Zr  0.78913770  0.17469069  0.26763424     2.83400
Zr574      Zr  0.73094740  0.20948337  0.26854818     2.84200
O575        O  0.75502563  0.18463694  0.24521261    -1.07900
O576        O  0.75233801  0.24376262  0.27863788    -1.07400
C577        C  0.73139447  0.22582134  0.32828152     1.07300
C578        C  0.70484935  0.19227730  0.21485751     1.09900
C579        C  0.76969556  0.29299635  0.29873823     1.07500
C580        C  0.80376687  0.18082402  0.32841039     1.07800
C581        C  0.78232451  0.14544875  0.21323359     1.07400
C582        C  0.75120843  0.25966466  0.18308309     1.06900
C583        C  0.70312066  0.26430412  0.25854046     1.07400
C584        C  0.73512758  0.14959846  0.28553231     1.06900
H585        H  0.72785469  0.23495737  0.22478770     0.33600
O586        O  0.74180576  0.23024271  0.23373035    -1.29000
H587        H  0.75999907  0.19076789  0.30519534     0.33600
O588        O  0.76479115  0.19912460  0.29087735    -1.30400
C589        C  0.50599825  0.35721532  0.73013243     0.80900
N590        N  0.50760375  0.38007871  0.72223105    -0.77400
C591        C  0.52909997  0.39085507  0.71968568     0.83400
N592        N  0.54928754  0.37849440  0.72485822    -0.77300
C593        C  0.54813098  0.35551643  0.73259472     0.83400
N594        N  0.52641241  0.34498772  0.73528543    -0.79100
C595        C  0.50385458  0.19610710  0.87338479     0.80900
N596        N  0.50314282  0.19826802  0.89752847    -0.77400
C597        C  0.52355026  0.19857645  0.91053544     0.83400
N598        N  0.54481812  0.19696093  0.89906216    -0.77300
C599        C  0.54595611  0.19483510  0.87492974     0.83400
N600        N  0.52531878  0.19433162  0.86208355    -0.79100
C601        C  0.64716731  0.21485787  0.52732027     0.80900
N602        N  0.62443585  0.20670736  0.52683783    -0.77400
C603        C  0.61282213  0.20418270  0.50577184     0.83400
N604        N  0.62416323  0.20982637  0.48507930    -0.77300
C605        C  0.64700751  0.21792997  0.48537976     0.83400
N606        N  0.65836448  0.22046280  0.50659389    -0.79100
C607        C  0.83880349  0.09996064  0.48686712     0.80900
N608        N  0.84201969  0.07592433  0.48755092    -0.77400
C609        C  0.84335164  0.06406726  0.50874898     0.83400
N610        N  0.84172784  0.07655817  0.52954810    -0.77300
C611        C  0.83873764  0.10071099  0.52916441     0.83400
N612        N  0.83714609  0.11215268  0.50775769    -0.79100
O613        O  0.80137116  0.21308981  0.83009253    -0.85800
O614        O  0.83008972  0.25335984  0.70479691    -0.86000
O615        O  0.85288765  0.20443909  0.76710669    -0.87600
O616        O  0.83093581  0.27824891  0.78222094    -0.86400
O617        O  0.79526032  0.29839437  0.78125867    -0.86000
O618        O  0.83448128  0.17120780  0.75182265    -0.87400
O619        O  0.85104295  0.25148261  0.74000886    -0.85800
O620        O  0.83456122  0.22854926  0.81184174    -0.85400
Zr621      Zr  0.82382170  0.23683779  0.77023176     2.84300
O622        O  0.79933119  0.26087650  0.74630346    -1.07400
O623        O  0.80314911  0.20200566  0.77959170    -1.08100
C624        C  0.82348823  0.21958379  0.83006296     1.07300
C625        C  0.84929642  0.25551681  0.71738830     1.07300
C626        C  0.85274521  0.18241227  0.76027008     1.10200
C627        C  0.81806889  0.29730963  0.78468602     1.08000
H628        H  0.82793051  0.21194352  0.72646480     0.33600
O629        O  0.81368166  0.21622959  0.73520402    -1.28300
H630        H  0.79389962  0.25522086  0.80578047     0.33200
O631        O  0.78934085  0.24671694  0.79153394    -1.30000
O632        O  0.75770854  0.23568897  0.68184693    -0.85800
O633        O  0.72736825  0.20064914  0.80968826    -0.87300
O634        O  0.80592754  0.17489576  0.70361048    -0.85900
O635        O  0.76844347  0.30072271  0.73593568    -0.85900
O636        O  0.75174705  0.27738678  0.80857358    -0.85600
O637        O  0.79432414  0.15347320  0.77787857    -0.85400
O638        O  0.72586607  0.17399117  0.73168197    -0.85800
O639        O  0.70438176  0.24585299  0.74628560    -0.85300
O640        O  0.76149817  0.15387777  0.73252578    -0.86300
O641        O  0.72218841  0.27932071  0.76143373    -0.85500
O642        O  0.80452730  0.21055353  0.68349750    -0.85900
O643        O  0.77914497  0.17034798  0.81188834    -0.85600
O644        O  0.75555123  0.24180503  0.82872688    -0.85300
O645        O  0.78314480  0.28250406  0.70241389    -0.85700
O646        O  0.72526762  0.21976101  0.70107856    -0.86000
O647        O  0.70687197  0.20211463  0.77420634    -0.87300
Zr648      Zr  0.78916616  0.24033141  0.71146689     2.83100
Zr649      Zr  0.76893517  0.21143067  0.80129597     2.83500
Zr650      Zr  0.79286341  0.18143715  0.74486162     2.84100
Zr651      Zr  0.76466549  0.27070838  0.76743081     2.83400
Zr652      Zr  0.73437678  0.21491165  0.74311851     2.84200
O653        O  0.74451646  0.23566807  0.77767640    -1.07900
O654        O  0.76847207  0.20534810  0.72110834    -1.07400
C655        C  0.73620740  0.22736954  0.68226729     1.07300
C656        C  0.70810782  0.19896842  0.79702643     1.09900
C657        C  0.80872324  0.18785502  0.68461460     1.07500
C658        C  0.77575026  0.30101360  0.71402066     1.07800
C659        C  0.75068714  0.26426685  0.82760782     1.07400
C660        C  0.78920485  0.15308935  0.80035641     1.06900
C661        C  0.73860179  0.15487145  0.72968403     1.07400
C662        C  0.70385007  0.26759397  0.75371303     1.06900
H663        H  0.75004330  0.17603464  0.77171049     0.33600
O664        O  0.75840887  0.19034911  0.76694205    -1.29000
H665        H  0.74411566  0.26006500  0.72254639     0.33600
O666        O  0.75428168  0.25020920  0.73246633    -1.30400
O667        O  0.25310251  0.21093310  0.17525189    -0.85800
O668        O  0.22121230  0.25498870  0.29864688    -0.86000
O669        O  0.20101771  0.20487064  0.23497060    -0.87600
O670        O  0.22191297  0.27844799  0.22205380    -0.86400
O671        O  0.25752037  0.29853752  0.22334823    -0.86000
O672        O  0.21812866  0.17116709  0.25073086    -0.87400
O673        O  0.20133446  0.25164251  0.26306635    -0.85800
O674        O  0.21974867  0.22750381  0.19228425    -0.85400
Zr675      Zr  0.22960555  0.23697630  0.23365280     2.84300
O676        O  0.25315117  0.26149295  0.25746041    -1.07400
O677        O  0.25052952  0.20195351  0.22519568    -1.08100
C678        C  0.23105739  0.21763191  0.17474538     1.07300
C679        C  0.20224825  0.25680879  0.28549218     1.07300
C680        C  0.20049702  0.18268534  0.24108984     1.10200
C681        C  0.23470220  0.29756287  0.22004874     1.08000
H682        H  0.22383317  0.21225504  0.27768837     0.33600
O683        O  0.23828365  0.21639792  0.26925120    -1.28300
H684        H  0.25997841  0.25434674  0.19777293     0.33200
O685        O  0.26427065  0.24606639  0.21226802    -1.30000
O686        O  0.29354165  0.23856509  0.32263616    -0.85800
O687        O  0.32724150  0.20010957  0.19739996    -0.87300
O688        O  0.24724266  0.17465278  0.30171741    -0.85900
O689        O  0.28770142  0.29952961  0.26837634    -0.85900
O690        O  0.30169465  0.27671098  0.19545373    -0.85600
O691        O  0.26121979  0.15164519  0.22942905    -0.85400
O692        O  0.32591766  0.17421443  0.27713473    -0.85800
O693        O  0.34859091  0.24625980  0.25733821    -0.85300
O694        O  0.29042683  0.15400632  0.27430517    -0.86300
O695        O  0.33025153  0.27905701  0.24088596    -0.85500
O696        O  0.24867615  0.21060285  0.32108601    -0.85900
O697        O  0.27784136  0.16811212  0.19575718    -0.85600
O698        O  0.29955397  0.24082968  0.17593739    -0.85300
O699        O  0.27065684  0.28278845  0.30177418    -0.85700
O700        O  0.32768119  0.22456008  0.30455736    -0.86000
O701        O  0.34711389  0.20159924  0.23322241    -0.87300
Zr702      Zr  0.26234878  0.24100777  0.29274276     2.83100
Zr703      Zr  0.28535904  0.21059247  0.20408675     2.83500
Zr704      Zr  0.25960681  0.18152312  0.26042062     2.84100
Zr705      Zr  0.28810459  0.27028219  0.23643114     2.83400
Zr706      Zr  0.31862553  0.21514391  0.26318573     2.84200
O707        O  0.30888785  0.23517787  0.22785628    -1.07900
O708        O  0.28356205  0.20594244  0.28415521    -1.07400
C709        C  0.31576429  0.23250084  0.32261422     1.07300
C710        C  0.34627727  0.19839345  0.21039207     1.09900
C711        C  0.24498869  0.18781793  0.32052649     1.07500
C712        C  0.28057095  0.30023843  0.29031281     1.07800
C713        C  0.30407390  0.26345774  0.17673114     1.07400
C714        C  0.26824623  0.15059144  0.20753538     1.06900
C715        C  0.31303843  0.15510254  0.27878820     1.07400
C716        C  0.34876329  0.26765523  0.24857095     1.06900
H717        H  0.30355425  0.17602050  0.23541945     0.33600
O718        O  0.29491479  0.19035495  0.23943337    -1.29000
H719        H  0.30776116  0.26025233  0.28157450     0.33600
O720        O  0.29765895  0.25021526  0.27196315    -1.30400
C721        C  0.82232695  0.14893654  0.57421715    -0.27500
C722        C  0.83296942  0.14031291  0.59530057     0.06100
C723        C  0.84610121  0.11883059  0.59422249     0.25700
C724        C  0.84780107  0.10603052  0.57279600    -0.12000
C725        C  0.83689387  0.11451895  0.55180358    -0.25900
C726        C  0.82433413  0.13634657  0.55271812     0.36500
C727        C  0.82876957  0.15275302  0.61854390     0.06100
F728        F  0.85751705  0.11026705  0.61385816    -0.19700
H729        H  0.85789440  0.08952258  0.57259222     0.15900
F730        F  0.81308753  0.14512887  0.53309021    -0.23400
H731        H  0.81171152  0.16510709  0.57450687     0.17700
C732        C  0.82999280  0.17780837  0.62057725     0.25700
C733        C  0.82393645  0.18907183  0.64213365    -0.12000
C734        C  0.81683072  0.17567505  0.66228673    -0.26000
C735        C  0.81662412  0.15056221  0.66041962     0.36600
C736        C  0.82221344  0.13941458  0.63880379    -0.27600
F737        F  0.83717702  0.19144181  0.60180969    -0.19800
H738        H  0.82469799  0.20836738  0.64296476     0.15900
F739        F  0.81025098  0.13658033  0.67920747    -0.23500
H740        H  0.82069758  0.12018040  0.63777449     0.17800
C741        C  0.68951828  0.23597457  0.57502167    -0.27500
C742        C  0.68554191  0.21899353  0.59306622     0.06100
C743        C  0.66819155  0.20119398  0.58966924     0.25700
C744        C  0.65539466  0.20027095  0.56835342    -0.12000
C745        C  0.65982330  0.21691525  0.55011895    -0.25900
C746        C  0.67675172  0.23501393  0.55369440     0.36500
C747        C  0.69876564  0.22071249  0.61575208     0.06100
F748        F  0.66395355  0.18442082  0.60671514    -0.19700
H749        H  0.64239241  0.18619531  0.56588495     0.15900
F750        F  0.68042878  0.25217089  0.53690484    -0.23400
H751        H  0.70224097  0.25027069  0.57763623     0.17700
C752        C  0.72369688  0.22359411  0.61599017     0.25700
C753        C  0.73573187  0.22632189  0.63764330    -0.12000
C754        C  0.72316139  0.22582480  0.65939425    -0.26000
C755        C  0.69819187  0.22267667  0.65901849     0.36600
C756        C  0.68620764  0.22032584  0.63738711    -0.27600
F757        F  0.73645494  0.22319938  0.59535585    -0.19800
H758        H  0.75496849  0.22828453  0.63738360     0.15900
F759        F  0.68517441  0.22214323  0.67947745    -0.23500
H760        H  0.66695232  0.21853373  0.63754013     0.17800
C761        C  0.61237554  0.18529068  0.86522610    -0.27500
C762        C  0.61514730  0.19187933  0.84120791     0.06100
C763        C  0.59480244  0.19835699  0.82788150     0.25700
C764        C  0.57224017  0.19882273  0.83873611    -0.12000
C765        C  0.56958690  0.19291689  0.86304025    -0.25900
C766        C  0.58994694  0.18576295  0.87608004     0.36500
C767        C  0.63940475  0.19245870  0.83053044     0.06100
F768        F  0.59685270  0.20511202  0.80465374    -0.19700
H769        H  0.55694778  0.20441365  0.82826580     0.15900
F770        F  0.58828989  0.17897986  0.89933014    -0.23400
H771        H  0.62771842  0.17977117  0.87566985     0.17700
C772        C  0.65798010  0.20507692  0.84175411     0.25700
C773        C  0.68069915  0.20599867  0.83139785    -0.12000
C774        C  0.68528801  0.19453295  0.80959859    -0.26000
C775        C  0.66691567  0.18130309  0.79875121     0.36600
C776        C  0.64419913  0.18031635  0.80915548    -0.27600
F777        F  0.65387095  0.21740823  0.86219435    -0.19800
H778        H  0.69442499  0.21661992  0.83987866     0.15900
F779        F  0.67094520  0.16932601  0.77809245    -0.23500
H780        H  0.63030061  0.17007991  0.80049770     0.17800
C781        C  0.59252117  0.30990007  0.75671501    -0.27500
C782        C  0.61375707  0.31756367  0.74578534     0.06100
C783        C  0.61314254  0.33737337  0.73035030     0.25700
C784        C  0.59180690  0.34963305  0.72643092    -0.12000
C785        C  0.57049777  0.34216654  0.73741263    -0.25900
C786        C  0.57102753  0.32204818  0.75260408     0.36500
C787        C  0.63639551  0.30449901  0.74979028     0.06100
F788        F  0.63304440  0.34440617  0.71840487    -0.19700
H789        H  0.59191764  0.36477090  0.71433797     0.15900
F790        F  0.55097721  0.31437121  0.76385925    -0.23400
H791        H  0.59264676  0.29459287  0.76859944     0.17700
C792        C  0.65728209  0.31669353  0.75638165     0.25700
C793        C  0.67902318  0.30455526  0.75794978    -0.12000
C794        C  0.68038908  0.27997930  0.75312443    -0.26000
C795        C  0.65913375  0.26759641  0.74753858     0.36600
C796        C  0.63743628  0.27982275  0.74592639    -0.27600
F797        F  0.65665829  0.34039237  0.76131259    -0.19800
H798        H  0.69485974  0.31456055  0.76264296     0.15900
F799        F  0.65915787  0.24372833  0.74338103    -0.23500
H800        H  0.62149406  0.27009440  0.74097576     0.17800
C801        C  0.68800791  0.21259303  0.37825095    -0.27500
C802        C  0.69455689  0.22976555  0.39519896     0.06100
C803        C  0.71285708  0.24600842  0.38985034     0.25700
C804        C  0.72443236  0.24495951  0.36778924    -0.12000
C805        C  0.71800683  0.22763862  0.35084930    -0.25900
C806        C  0.69954913  0.21149707  0.35623024     0.36500
C807        C  0.68257873  0.22985461  0.41861761     0.06100
F808        F  0.71939606  0.26293113  0.40585674    -0.19700
H809        H  0.73850011  0.25766504  0.36396796     0.15900
F810        F  0.69333159  0.19400636  0.34070635    -0.23400
H811        H  0.67424390  0.19963255  0.38232917     0.17700
C812        C  0.65757209  0.23037485  0.41994150     0.25700
C813        C  0.64614360  0.22703403  0.44180869    -0.12000
C814        C  0.65946875  0.22346025  0.46278221    -0.26000
C815        C  0.68461395  0.22439747  0.46160996     0.36600
C816        C  0.69600561  0.22741688  0.43961965    -0.27600
F817        F  0.64423020  0.23384458  0.39997840    -0.19800
H818        H  0.62680979  0.22697794  0.44224952     0.15900
F819        F  0.69827915  0.22132753  0.48142178    -0.23500
H820        H  0.71533029  0.22691982  0.43886174     0.17800
C821        C  0.82146876  0.14608639  0.43980172    -0.27500
C822        C  0.82903135  0.13507510  0.41860056     0.06100
C823        C  0.84114140  0.11306838  0.42015141     0.25700
C824        C  0.84439530  0.10184295  0.44234701    -0.12000
C825        C  0.83619227  0.11255698  0.46353823    -0.25900
C826        C  0.82503143  0.13509134  0.46200452     0.36500
C827        C  0.82356307  0.14644546  0.39509032     0.06100
F828        F  0.85017065  0.10258988  0.40026295    -0.19700
H829        H  0.85347519  0.08476304  0.44293559     0.15900
F830        F  0.81672411  0.14624910  0.48181432    -0.23400
H831        H  0.81215894  0.16304003  0.43913050     0.17700
C832        C  0.81243645  0.13347862  0.37670253     0.25700
C833        C  0.80667115  0.14455922  0.35493267    -0.12000
C834        C  0.81118309  0.16899015  0.35120318    -0.26000
C835        C  0.82184626  0.18207614  0.36990867     0.36600
C836        C  0.82813120  0.17082897  0.39141643    -0.27600
F837        F  0.80601203  0.11037995  0.38021689    -0.19800
H838        H  0.79789869  0.13414532  0.34124694     0.15900
F839        F  0.82626892  0.20577832  0.36753207    -0.23500
H840        H  0.83646325  0.18127759  0.40535888     0.17800
C841        C  0.54158682  0.18129838  0.02494861    -0.27500
C842        C  0.52350947  0.19479309  0.01390646     0.06100
C843        C  0.50593090  0.20563063  0.02822266     0.25700
C844        C  0.50658739  0.20297409  0.05308399    -0.12000
C845        C  0.52496212  0.18983104  0.06410435    -0.25900
C846        C  0.54247718  0.17898016  0.04977220     0.36500
C847        C  0.52310969  0.19719628  0.98750483     0.06100
F848        F  0.48851392  0.21929457  0.01825168    -0.19700
H849        H  0.49296473  0.21159068  0.06377363     0.15900
F850        F  0.56007841  0.16551666  0.05967068    -0.23400
H851        H  0.55496733  0.17229112  0.01428197     0.17700
C852        C  0.54400114  0.20301292  0.97482933     0.25700
C853        C  0.54380291  0.20397521  0.94990525    -0.12000
C854        C  0.52280633  0.19920999  0.93702088    -0.26000
C855        C  0.50173461  0.19389463  0.94976946     0.36600
C856        C  0.50199393  0.19285352  0.97473400    -0.27600
F857        F  0.56463997  0.20788116  0.98654282    -0.19800
H858        H  0.56025013  0.20830075  0.94068632     0.15900
F859        F  0.48105699  0.18878284  0.93823925    -0.23500
H860        H  0.48577869  0.18796943  0.98408604     0.17800
C861        C  0.45850608  0.18880405  0.17640576    -0.27500
C862        C  0.43748364  0.18326701  0.16387187     0.06100
C863        C  0.43919331  0.17686724  0.13965774     0.25700
C864        C  0.46130906  0.17684588  0.12811989    -0.12000
C865        C  0.48232372  0.18293843  0.14043077    -0.25900
C866        C  0.48073999  0.18858842  0.16489037     0.36500
C867        C  0.41376420  0.18581359  0.17556942     0.06100
F868        F  0.41945042  0.17059094  0.12710157    -0.19700
H869        H  0.46193138  0.17206762  0.10939400     0.15900
F870        F  0.50043418  0.19492322  0.17746784    -0.23400
H871        H  0.45762856  0.19412445  0.19497065     0.17700
C872        C  0.40920858  0.17611917  0.19836280     0.25700
C873        C  0.38715176  0.18000834  0.20955505    -0.12000
C874        C  0.36909300  0.19318825  0.19804350    -0.26000
C875        C  0.37355763  0.20253692  0.17510223     0.36600
C876        C  0.39567608  0.19897204  0.16412689    -0.27600
F877        F  0.42593961  0.16264546  0.20966869    -0.19800
H878        H  0.38412396  0.17260036  0.22720124     0.15900
F879        F  0.35697147  0.21612810  0.16370631    -0.23500
H880        H  0.39888946  0.20708256  0.14682746     0.17800
C881        C  0.63829123  0.18692401  0.20126248    -0.27500
C882        C  0.63829528  0.18096599  0.17690832     0.06100
C883        C  0.66043808  0.17713285  0.16553514     0.25700
C884        C  0.68192352  0.18021124  0.17803667    -0.12000
C885        C  0.68194396  0.18676430  0.20229133    -0.25900
C886        C  0.65967211  0.18949477  0.21391152     0.36500
C887        C  0.61528182  0.18005212  0.16338222     0.06100
F888        F  0.66137173  0.17028536  0.14231769    -0.19700
H889        H  0.69859706  0.17766296  0.16857506     0.15900
F890        F  0.65830779  0.19545757  0.23736600    -0.23400
H891        H  0.62164283  0.19034892  0.21048529     0.17700
C892        C  0.59472548  0.16927672  0.17318726     0.25700
C893        C  0.57284520  0.17027908  0.16105139    -0.12000
C894        C  0.57099096  0.18157652  0.13866912    -0.26000
C895        C  0.59170842  0.19166786  0.12850539     0.36600
C896        C  0.61341982  0.19113514  0.14087754    -0.27600
F897        F  0.59579036  0.15747759  0.19438196    -0.19800
H898        H  0.55734143  0.16199074  0.16912117     0.15900
F899        F  0.59092195  0.20286071  0.10696296    -0.23500
H900        H  0.62870285  0.20001195  0.13303426     0.17800
C901        C  0.45902742  0.30849346  0.24965917    -0.27500
C902        C  0.43979123  0.31400599  0.23458052     0.06100
C903        C  0.44284612  0.33120018  0.21643252     0.25700
C904        C  0.46476837  0.34281580  0.21371249    -0.12000
C905        C  0.48401814  0.33715032  0.22874689    -0.25900
C906        C  0.48098197  0.31980204  0.24674009     0.36500
C907        C  0.41653317  0.30210796  0.23834906     0.06100
F908        F  0.42480232  0.33642016  0.20107978    -0.19700
H909        H  0.46681410  0.35600544  0.19966035     0.15900
F910        F  0.49894993  0.31437348  0.26212049    -0.23400
H911        H  0.45691880  0.29566419  0.26403179     0.17700
C912        C  0.41512625  0.27714790  0.24067313     0.25700
C913        C  0.39313078  0.26615595  0.24471122    -0.12000
C914        C  0.37210276  0.27978960  0.24630301    -0.26000
C915        C  0.37359764  0.30483099  0.24417333     0.36600
C916        C  0.39563656  0.31579877  0.24031030    -0.27600
F917        F  0.43491665  0.26332360  0.23831237    -0.19800
H918        H  0.39249249  0.24686126  0.24590083     0.15900
F919        F  0.35385377  0.31879896  0.24603002    -0.23500
H920        H  0.39641921  0.33508339  0.23905480     0.17800
C921        C  0.65749826  0.31372687  0.24986646    -0.27500
C922        C  0.63630019  0.30201035  0.25615604     0.06100
C923        C  0.63740582  0.27866965  0.26530293     0.25700
C924        C  0.65928074  0.26680128  0.26675844    -0.12000
C925        C  0.68047800  0.27802788  0.25924951    -0.25900
C926        C  0.67941511  0.30202189  0.25151512     0.36500
C927        C  0.61313909  0.31360739  0.25121338     0.06100
F928        F  0.61729085  0.26724542  0.27253817    -0.19700
H929        H  0.65945895  0.24856688  0.27324752     0.15900
F930        F  0.69933142  0.31410375  0.24482289    -0.23400
H931        H  0.65701420  0.33172245  0.24272829     0.17700
C932        C  0.60892128  0.33734651  0.25806641     0.25700
C933        C  0.58802778  0.34890725  0.25098404    -0.12000
C934        C  0.57079059  0.33683129  0.23748801    -0.26000
C935        C  0.57461805  0.31285791  0.23122917     0.36600
C936        C  0.59576915  0.30144654  0.23788123    -0.27600
F937        F  0.62489368  0.34927048  0.27178740    -0.19800
H938        H  0.58513784  0.36724147  0.25637809     0.15900
F939        F  0.55837702  0.30076009  0.21796338    -0.23500
H940        H  0.59887382  0.28328209  0.23205946     0.17800
C941        C  0.88776540  0.39141649  0.80839491    -0.27500
C942        C  0.86499062  0.38863944  0.79831138     0.06100
C943        C  0.85319980  0.40903031  0.78927766     0.25700
C944        C  0.86402706  0.43155590  0.79032445    -0.12000
C945        C  0.88698431  0.43425290  0.80004291    -0.25900
C946        C  0.89872014  0.41383977  0.80918269     0.36500
C947        C  0.85369828  0.36454829  0.79699533     0.06100
F948        F  0.83152676  0.40708240  0.77862565    -0.19700
H949        H  0.85466283  0.44680917  0.78291856     0.15900
F950        F  0.92071317  0.41548533  0.81923564    -0.23400
H951        H  0.89709574  0.37617631  0.81586641     0.17700
C952        C  0.86645357  0.34458367  0.78851479     0.25700
C953        C  0.85499599  0.32257261  0.78557663    -0.12000
C954        C  0.83058492  0.31990241  0.79090503    -0.26000
C955        C  0.81816570  0.33957263  0.80052100     0.36600
C956        C  0.82966959  0.36152667  0.80358001    -0.27600
F957        F  0.88968157  0.34656209  0.78187612    -0.19800
H958        H  0.86507468  0.30784694  0.77813132     0.15900
F959        F  0.79484432  0.33773397  0.80686334    -0.23500
H960        H  0.81963788  0.37634634  0.81089090     0.17800
C961        C  0.84939593  0.54765277  0.80295699    -0.27500
C962        C  0.86154142  0.56814210  0.79487381     0.06100
C963        C  0.88540457  0.56579610  0.78735185     0.25700
C964        C  0.89680267  0.54364664  0.78835908    -0.12000
C965        C  0.88466433  0.52313852  0.79635468    -0.25900
C966        C  0.86061932  0.52530427  0.80328619     0.36500
C967        C  0.84909491  0.59163154  0.79359920     0.06100
F968        F  0.89762350  0.58472642  0.77837560    -0.19700
H969        H  0.91521551  0.54254721  0.78253443     0.15900
F970        F  0.84806190  0.50604274  0.81092983    -0.23400
H971        H  0.83116282  0.54892072  0.80925486     0.17700
C972        C  0.82564075  0.59325350  0.78475178     0.25700
C973        C  0.81450284  0.61538714  0.78240834    -0.12000
C974        C  0.82649425  0.63658997  0.78833656    -0.26000
C975        C  0.84978318  0.63504219  0.79770651     0.36600
C976        C  0.86079707  0.61274429  0.80052617    -0.27600
F977        F  0.81377337  0.57359732  0.77714283    -0.19800
H978        H  0.79668851  0.61588703  0.77489048     0.15900
F979        F  0.86200832  0.65496175  0.80399961    -0.23500
H980        H  0.87861732  0.61202996  0.80799043     0.17800
C981        C  0.78069434  0.41199519  0.67111207    -0.27500
C982        C  0.77199784  0.39044671  0.66183568     0.06100
C983        C  0.75852953  0.39088768  0.64065197     0.25700
C984        C  0.75295631  0.41258023  0.62964527    -0.12000
C985        C  0.76062087  0.43428968  0.63950629    -0.25900
C986        C  0.77524530  0.43374214  0.66002803     0.36500
C987        C  0.77493747  0.36794465  0.67549671     0.06100
F988        F  0.74947484  0.37047719  0.63135439    -0.19700
H989        H  0.74183237  0.41235855  0.61382278     0.15900
F990        F  0.78418729  0.45411571  0.66954130    -0.23400
H991        H  0.79137284  0.41198349  0.68725153     0.17700
C992        C  0.78322347  0.34700138  0.66451750     0.25700
C993        C  0.78361068  0.32546584  0.67720010    -0.12000
C994        C  0.77575357  0.32430233  0.70110320    -0.26000
C995        C  0.76808871  0.34556698  0.71222814     0.36600
C996        C  0.76781403  0.36707400  0.69951416    -0.27600
F997        F  0.79095749  0.34734526  0.64152646    -0.19800
H998        H  0.78991732  0.30962651  0.66811762     0.15900
F999        F  0.76040140  0.34570276  0.73522976    -0.23500
H1000       H  0.76125227  0.38301327  0.70826302     0.17800
C1001       C  0.77898565  0.60465673  0.66935991    -0.27500
C1002       C  0.76136893  0.58902628  0.67795619     0.06100
C1003       C  0.74681852  0.59601714  0.69706240     0.25700
C1004       C  0.75005664  0.61825808  0.70756657    -0.12000
C1005       C  0.76778600  0.63397902  0.69915578    -0.25900
C1006       C  0.78214969  0.62705282  0.67975427     0.36500
C1007       C  0.75760698  0.56584990  0.66629357     0.06100
F1008       F  0.72902968  0.58163090  0.70509412    -0.19700
H1009       H  0.73843798  0.62327252  0.72220246     0.15900
F1010       F  0.79952083  0.64159832  0.67114764    -0.23400
H1011       H  0.79034579  0.59943030  0.65459897     0.17700
C1012       C  0.75296008  0.56495618  0.64172913     0.25700
C1013       C  0.74932172  0.54310524  0.63061306    -0.12000
C1014       C  0.75028839  0.52167256  0.64374294    -0.26000
C1015       C  0.75466096  0.52261423  0.66852408     0.36600
C1016       C  0.75826985  0.54461057  0.67965616    -0.27600
F1017       F  0.75148745  0.58530262  0.62855537    -0.19800
H1018       H  0.74595469  0.54304991  0.61156677     0.15900
F1019       F  0.75516328  0.50246236  0.68206180    -0.23500
H1020       H  0.76173954  0.54509225  0.69869202     0.17800
C1021       C  0.59323646  0.78773280  0.82496111    -0.27500
C1022       C  0.61428334  0.77997012  0.83638148     0.06100
C1023       C  0.61300199  0.77253959  0.86034103     0.25700
C1024       C  0.59119214  0.77230458  0.87237138    -0.12000
C1025       C  0.56991295  0.77907261  0.86081936    -0.25900
C1026       C  0.57121064  0.78729533  0.83700449     0.36500
C1027       C  0.63724752  0.77783396  0.82311415     0.06100
F1028       F  0.63264221  0.76405190  0.87177804    -0.19700
H1029       H  0.59093326  0.76579615  0.89061184     0.15900
F1030       F  0.55131324  0.79479092  0.82531359    -0.23400
H1031       H  0.59381868  0.79380722  0.80657606     0.17700
C1032       C  0.63840753  0.76495829  0.80163686     0.25700
C1033       C  0.66047440  0.76030662  0.79087151    -0.12000
C1034       C  0.68194646  0.76825625  0.80126380    -0.26000
C1035       C  0.68071779  0.78183164  0.82233609     0.36600
C1036       C  0.65857788  0.78661947  0.83303546    -0.27600
F1037       F  0.61834819  0.75566664  0.79175133    -0.19800
H1038       H  0.66077468  0.74965993  0.77475322     0.15900
F1039       F  0.70084910  0.79048058  0.83261962    -0.23500
H1040       H  0.65811125  0.79683694  0.84942293     0.17800
C1041       C  0.54864037  0.50368380  0.68870339    -0.27500
C1042       C  0.52860795  0.49107332  0.69696196     0.06100
C1043       C  0.50819764  0.50373369  0.70411794     0.25700
C1044       C  0.50826031  0.52858336  0.70397708    -0.12000
C1045       C  0.52872061  0.54135785  0.69697443    -0.25900
C1046       C  0.54872382  0.52865593  0.68855494     0.36500
C1047       C  0.52990843  0.46499412  0.70053899     0.06100
F1048       F  0.48878513  0.49215033  0.71288494    -0.19700
H1049       H  0.49258927  0.53776261  0.71061854     0.15900
F1050       F  0.56845879  0.54025238  0.68059968    -0.23400
H1051       H  0.56445103  0.49413101  0.68294759     0.17700
C1052       C  0.51231999  0.44977008  0.69125848     0.25700
C1053       C  0.51252945  0.42550352  0.69706900    -0.12000
C1054       C  0.53027303  0.41606873  0.71214842    -0.26000
C1055       C  0.54820978  0.43124034  0.72091980     0.36600
C1056       C  0.54799605  0.45547410  0.71507116    -0.27600
F1057       F  0.49483315  0.45841492  0.67681451    -0.19800
H1058       H  0.49864123  0.41410604  0.68998359     0.15900
F1059       F  0.56510107  0.42301574  0.73628452    -0.23500
H1060       H  0.56143551  0.46705119  0.72271454     0.17800
C1061       C  0.61620617  0.61895722  0.71279570    -0.27500
C1062       C  0.61574842  0.63795754  0.72909735     0.06100
C1063       C  0.59382431  0.64526709  0.73884041     0.25700
C1064       C  0.57278071  0.63384286  0.73224487    -0.12000
C1065       C  0.57313360  0.61479705  0.71595247    -0.25900
C1066       C  0.59509411  0.60742856  0.70622436     0.36500
C1067       C  0.63791241  0.65099721  0.73481769     0.06100
F1068       F  0.59277707  0.66325180  0.75501565    -0.19700
H1069       H  0.55618791  0.63972916  0.74025921     0.15900
F1070       F  0.59612217  0.58962690  0.68987232    -0.23400
H1071       H  0.63288369  0.61341241  0.70471252     0.17700
C1072       C  0.65873826  0.63885533  0.74186252     0.25700
C1073       C  0.67975498  0.65153331  0.74614328    -0.12000
C1074       C  0.68037635  0.67652151  0.74349379    -0.26000
C1075       C  0.65924573  0.68863944  0.73697655     0.36600
C1076       C  0.63836339  0.67592374  0.73259996    -0.27600
F1077       F  0.65872453  0.61478670  0.74477412    -0.19800
H1078       H  0.69563980  0.64167942  0.75118446     0.15900
F1079       F  0.65860686  0.71276745  0.73467001    -0.23500
H1080       H  0.62254567  0.68559375  0.72700260     0.17800
C1081       C  0.84024298  0.94927519  0.48215507    -0.27500
C1082       C  0.84458309  0.96062026  0.50414614     0.06100
C1083       C  0.84744601  0.94641843  0.52470269     0.25700
C1084       C  0.84526016  0.92167979  0.52340541    -0.12000
C1085       C  0.84063663  0.91022954  0.50154392    -0.25900
C1086       C  0.83850759  0.92433955  0.48074931     0.36500
C1087       C  0.84537380  0.98715672  0.50582589     0.06100
F1088       F  0.85280233  0.95638161  0.54610955    -0.19700
H1089       H  0.84735698  0.91149114  0.53975147     0.15900
F1090       F  0.83445040  0.91422857  0.45912602    -0.23400
H1091       H  0.83773021  0.95975169  0.46605384     0.17700
C1092       C  0.85791483  0.00100729  0.48896832     0.25700
C1093       C  0.85752838  0.02596465  0.49031944    -0.12000
C1094       C  0.84520084  0.03764334  0.50880672    -0.26000
C1095       C  0.83340272  0.02379147  0.52616086     0.36600
C1096       C  0.83320837  0.99888821  0.52441379    -0.27600
F1097       F  0.87082759  0.99046370  0.47138181    -0.19800
H1098       H  0.86696493  0.03622426  0.47687519     0.15900
F1099       F  0.82106274  0.03427414  0.54418074    -0.23500
H1100       H  0.82303165  0.98877250  0.53740498     0.17800
C1101       C  0.84159238  0.80193834  0.57278956    -0.27500
C1102       C  0.83129777  0.81428416  0.59211451     0.06100
C1103       C  0.82313566  0.83776713  0.58850443     0.25700
C1104       C  0.82490751  0.84839781  0.56605115    -0.12000
C1105       C  0.83430771  0.83578979  0.54654041    -0.25900
C1106       C  0.84280275  0.81242489  0.55008290     0.36500
C1107       C  0.82755643  0.80215990  0.61543791     0.06100
F1108       F  0.81233112  0.85012173  0.60632139    -0.19700
H1109       H  0.81815287  0.86639633  0.56376632     0.15900
F1110       F  0.85256521  0.79987944  0.53180732    -0.23400
H1111       H  0.84848185  0.78401848  0.57521774     0.17700
C1112       C  0.81793154  0.77902939  0.61625752     0.25700
C1113       C  0.81281898  0.76825844  0.63811245    -0.12000
C1114       C  0.81654511  0.78042479  0.65973857    -0.26000
C1115       C  0.82636446  0.80354956  0.65899506     0.36600
C1116       C  0.83210247  0.81410712  0.63703805    -0.27600
F1117       F  0.81214885  0.76725326  0.59591405    -0.19800
H1118       H  0.80498156  0.75059826  0.63794098     0.15900
F1119       F  0.83022276  0.81609721  0.67933568    -0.23500
H1120       H  0.83980194  0.83182529  0.63691858     0.17800
C1121       C  0.65739250  0.72246986  0.59065497    -0.27500
C1122       C  0.68217648  0.71875819  0.59065276     0.06100
C1123       C  0.69390418  0.71458235  0.56884183     0.25700
C1124       C  0.68116931  0.71517265  0.54742273    -0.12000
C1125       C  0.65657755  0.72019574  0.54726637    -0.25900
C1126       C  0.64465526  0.72326696  0.56925313     0.36500
C1127       C  0.69575016  0.72016313  0.61329952     0.06100
F1128       F  0.71789413  0.71121769  0.56805121    -0.19700
H1129       H  0.69086109  0.71269229  0.53087008     0.15900
F1130       F  0.62078533  0.72743881  0.57021645    -0.23400
H1131       H  0.64788887  0.72509818  0.60730235     0.17700
C1132       C  0.69208983  0.73929766  0.62911388     0.25700
C1133       C  0.70513089  0.74069768  0.65026085    -0.12000
C1134       C  0.72230502  0.72332475  0.65594206    -0.26000
C1135       C  0.72605974  0.70418211  0.64013719     0.36600
C1136       C  0.71273001  0.70258977  0.61909664    -0.27600
F1137       F  0.67639970  0.75705207  0.62385040    -0.19800
H1138       H  0.70208333  0.75569789  0.66204945     0.15900
F1139       F  0.74206474  0.68667484  0.64528767    -0.23500
H1140       H  0.71553534  0.68747975  0.60740096     0.17800
C1141       C  0.69281486  0.70968632  0.43691929    -0.27500
C1142       C  0.68245943  0.71809446  0.41570647     0.06100
C1143       C  0.65890115  0.72668066  0.41603222     0.25700
C1144       C  0.64638718  0.72785591  0.43755591    -0.12000
C1145       C  0.65707900  0.72040779  0.45911687    -0.25900
C1146       C  0.68028767  0.71064707  0.45843121     0.36500
C1147       C  0.69651020  0.71797707  0.39342990     0.06100
F1148       F  0.64833481  0.73483771  0.39574358    -0.19700
H1149       H  0.62849765  0.73521498  0.43733806     0.15900
F1150       F  0.69117730  0.70238088  0.47848066    -0.23400
H1151       H  0.71077402  0.70246618  0.43682064     0.17700
C1152       C  0.71916297  0.72877713  0.39255931     0.25700
C1153       C  0.73273429  0.72783382  0.37164264    -0.12000
C1154       C  0.72361996  0.71661869  0.35125969    -0.26000
C1155       C  0.70085732  0.70614967  0.35200703     0.36600
C1156       C  0.68748930  0.70669536  0.37302444    -0.27600
F1157       F  0.72779430  0.74083282  0.41169945    -0.19800
H1158       H  0.75001556  0.73649115  0.37110080     0.15900
F1159       F  0.69174950  0.69509088  0.33248838    -0.23500
H1160       H  0.67016085  0.69814192  0.37345068     0.17800
C1161       C  0.81860681  0.80951191  0.37065813    -0.27500
C1162       C  0.82386413  0.79652704  0.39147810     0.06100
C1163       C  0.82607014  0.77155525  0.39004481     0.25700
C1164       C  0.82202820  0.75981618  0.36836904    -0.12000
C1165       C  0.81593398  0.77274635  0.34763149    -0.25900
C1166       C  0.81492195  0.79791278  0.34894305     0.36500
C1167       C  0.82641715  0.80919196  0.41460224     0.06100
F1168       F  0.83223526  0.75851634  0.40958456    -0.19700
H1169       H  0.82338284  0.74053543  0.36792726     0.15900
F1170       F  0.80949540  0.81146568  0.32952252    -0.23400
H1171       H  0.81670075  0.82874441  0.37131258     0.17700
C1172       C  0.84080082  0.82966540  0.41639707     0.25700
C1173       C  0.84238242  0.84202762  0.43796222    -0.12000
C1174       C  0.83005360  0.83404157  0.45830218    -0.26000
C1175       C  0.81568652  0.81351423  0.45660484     0.36600
C1176       C  0.81380087  0.80133826  0.43487639    -0.27600
F1177       F  0.85380883  0.83741831  0.39744214    -0.19800
H1178       H  0.85370555  0.85765555  0.43888573     0.15900
F1179       F  0.80292014  0.80562772  0.47568055    -0.23500
H1180       H  0.80219031  0.78593582  0.43378737     0.17800
C1181       C  0.50996319  0.77001437  0.02619825    -0.27500
C1182       C  0.52874613  0.75919124  0.01365920     0.06100
C1183       C  0.54781236  0.74912653  0.02667739     0.25700
C1184       C  0.54798756  0.75009248  0.05173885    -0.12000
C1185       C  0.52918361  0.76108720  0.06429403    -0.25900
C1186       C  0.51009238  0.77098454  0.05113919     0.36500
C1187       C  0.52877578  0.75987790  0.98707748     0.06100
F1188       F  0.56612701  0.73815774  0.01518693    -0.19700
H1189       H  0.56279029  0.74210044  0.06132794     0.15900
F1190       F  0.49184822  0.78241676  0.06224678    -0.23400
H1191       H  0.49536924  0.77836667  0.01658667     0.17700
C1192       C  0.50848416  0.75314101  0.97389187     0.25700
C1193       C  0.50793477  0.75611478  0.94902511    -0.12000
C1194       C  0.52764977  0.76569454  0.93671442    -0.26000
C1195       C  0.54817981  0.77186102  0.94996722     0.36600
C1196       C  0.54861869  0.76900228  0.97480272    -0.27600
F1197       F  0.48921989  0.74354090  0.98505772    -0.19800
H1198       H  0.49202116  0.75085544  0.93941355     0.15900
F1199       F  0.56769637  0.78133714  0.93915519    -0.23500
H1200       H  0.56430618  0.77464507  0.98457249     0.17800
C1201       C  0.64107736  0.76221023  0.20418602    -0.27500
C1202       C  0.63955110  0.75759686  0.17958334     0.06100
C1203       C  0.66041971  0.75161129  0.16701168     0.25700
C1204       C  0.68231224  0.75007332  0.17884681    -0.12000
C1205       C  0.68394101  0.75425031  0.20355257    -0.25900
C1206       C  0.66302133  0.76059850  0.21612930     0.36500
C1207       C  0.61630117  0.75902404  0.16692532     0.06100
F1208       F  0.65947474  0.74625852  0.14339948    -0.19700
H1209       H  0.69789231  0.74473666  0.16870262     0.15900
F1210       F  0.66366076  0.76515203  0.23993634    -0.23400
H1211       H  0.62523056  0.76709470  0.21414814     0.17700
C1212       C  0.59652471  0.74554683  0.17457444     0.25700
C1213       C  0.57501185  0.74644435  0.16178783    -0.12000
C1214       C  0.57295113  0.76058942  0.14109557    -0.26000
C1215       C  0.59261615  0.77433199  0.13370663     0.36600
C1216       C  0.61403846  0.77352647  0.14653006    -0.27600
F1217       F  0.59824110  0.73098133  0.19394305    -0.19800
H1218       H  0.56006166  0.73574274  0.16779291     0.15900
F1219       F  0.59088787  0.78913762  0.11453385    -0.23500
H1220       H  0.62892407  0.78435312  0.14058613     0.17800
C1221       C  0.54673196  0.50047895  0.19698429    -0.27500
C1222       C  0.52777172  0.48678988  0.20600647     0.06100
C1223       C  0.50779044  0.49833267  0.21579282     0.25700
C1224       C  0.50716415  0.52311657  0.21727142    -0.12000
C1225       C  0.52658717  0.53688220  0.20938666    -0.25900
C1226       C  0.54611673  0.52540115  0.19846685     0.36500
C1227       C  0.52946838  0.46053038  0.20702732     0.06100
F1228       F  0.48955157  0.48558152  0.22541733    -0.19700
H1229       H  0.49194618  0.53141377  0.22585528     0.15900
F1230       F  0.56467797  0.53817347  0.18952582    -0.23400
H1231       H  0.56217104  0.49180931  0.18919213     0.17700
C1232       C  0.51113073  0.44623334  0.19776681     0.25700
C1233       C  0.51127613  0.42161668  0.20170524    -0.12000
C1234       C  0.52980856  0.41082008  0.21476262    -0.26000
C1235       C  0.54863508  0.42513475  0.22334430     0.36600
C1236       C  0.54841289  0.44976395  0.21940554    -0.27600
F1237       F  0.49292096  0.45617337  0.18517749    -0.19800
H1238       H  0.49676107  0.41100798  0.19465858     0.15900
F1239       F  0.56663759  0.41563225  0.23657403    -0.23500
H1240       H  0.56253455  0.46059514  0.22691879     0.17800
C1241       C  0.61460003  0.61195011  0.22807437    -0.27500
C1242       C  0.61450481  0.63269706  0.24206804     0.06100
C1243       C  0.59270006  0.64164088  0.25061309     0.25700
C1244       C  0.57141407  0.62997753  0.24523209    -0.12000
C1245       C  0.57139618  0.60912819  0.23128001    -0.25900
C1246       C  0.59330891  0.60017253  0.22274811     0.36500
C1247       C  0.63712635  0.64520505  0.24718509     0.06100
F1248       F  0.59200789  0.66138878  0.26459064    -0.19700
H1249       H  0.55492826  0.63721083  0.25229971     0.15900
F1250       F  0.59426006  0.58031584  0.20895722    -0.23400
H1251       H  0.63120791  0.60502154  0.22097055     0.17700
C1252       C  0.65710375  0.63263117  0.25584203     0.25700
C1253       C  0.67879991  0.64438321  0.25915268    -0.12000
C1254       C  0.68073754  0.66889689  0.25440274    -0.26000
C1255       C  0.66055145  0.68166767  0.24655051     0.36600
C1256       C  0.63900883  0.66981629  0.24277007    -0.27600
F1257       F  0.65558033  0.60904646  0.26126276    -0.19800
H1258       H  0.69412729  0.63434017  0.26543066     0.15900
F1259       F  0.66194787  0.70532143  0.24134662    -0.23500
H1260       H  0.62392673  0.67976847  0.23579668     0.17800
C1261       C  0.86494790  0.60296521  0.21709281    -0.27500
C1262       C  0.85121153  0.58410432  0.20791141     0.06100
C1263       C  0.82682427  0.58798759  0.20337601     0.25700
C1264       C  0.81635747  0.61000585  0.20852624    -0.12000
C1265       C  0.82997213  0.62880260  0.21797792    -0.25900
C1266       C  0.85457326  0.62517721  0.22186717     0.36500
C1267       C  0.86229841  0.56039535  0.20351225     0.06100
F1268       F  0.81311476  0.57060133  0.19364056    -0.19700
H1269       H  0.79746429  0.61232287  0.20507022     0.15900
F1270       F  0.86848379  0.64271209  0.23108102    -0.23400
H1271       H  0.88369587  0.60036106  0.22107587     0.17700
C1272       C  0.88441303  0.55854699  0.19179458     0.25700
C1273       C  0.89522500  0.53628960  0.18878490    -0.12000
C1274       C  0.88423849  0.51527929  0.19717854    -0.26000
C1275       C  0.86168336  0.51703268  0.20816533     0.36600
C1276       C  0.85099808  0.53940191  0.21145788    -0.27600
F1277       F  0.89554523  0.57824100  0.18305292    -0.19800
H1278       H  0.91241893  0.53557390  0.17995073     0.15900
F1279       F  0.85031719  0.49735243  0.21658795    -0.23500
H1280       H  0.83409000  0.54034707  0.22080235     0.17800
C1281       C  0.85310103  0.40001972  0.19556322    -0.27500
C1282       C  0.86449257  0.38191331  0.20886748     0.06100
C1283       C  0.88721543  0.38655618  0.21850193     0.25700
C1284       C  0.89835219  0.40861313  0.21459693    -0.12000
C1285       C  0.88691597  0.42675796  0.20147292    -0.25900
C1286       C  0.86405066  0.42228343  0.19205610     0.36500
C1287       C  0.85240940  0.35853710  0.21320106     0.06100
F1288       F  0.89829934  0.37007371  0.23246480    -0.19700
H1289       H  0.91577648  0.41172597  0.22237077     0.15900
F1290       F  0.85251718  0.43919616  0.17898440    -0.23400
H1291       H  0.83568484  0.39687433  0.18778999     0.17700
C1292       C  0.82893183  0.35773297  0.22202216     0.25700
C1293       C  0.81777722  0.33581670  0.22646198    -0.12000
C1294       C  0.82972481  0.31399435  0.22250581    -0.26000
C1295       C  0.85338553  0.31481924  0.21384911     0.36600
C1296       C  0.86444997  0.33684662  0.20912426    -0.27600
F1297       F  0.81702883  0.37818944  0.22725726    -0.19800
H1298       H  0.79978641  0.33603852  0.23355552     0.15900
F1299       F  0.86589269  0.29444755  0.20986757    -0.23500
H1300       H  0.88252440  0.33696252  0.20223741     0.17800
C1301       C  0.73839896  0.45626384  0.48521842    -0.27500
C1302       C  0.72523009  0.47549950  0.49443172     0.06100
C1303       C  0.71706052  0.49336564  0.47866055     0.25700
C1304       C  0.72229453  0.49199707  0.45424164    -0.12000
C1305       C  0.73550019  0.47272078  0.44511272    -0.25900
C1306       C  0.74342506  0.45476633  0.46087693     0.36500
C1307       C  0.72254860  0.47770645  0.52069991     0.06100
F1308       F  0.70401586  0.51208959  0.48681090    -0.19700
H1309       H  0.71590569  0.50597009  0.44242693     0.15900
F1310       F  0.75703000  0.43630852  0.45303148    -0.23400
H1311       H  0.74562121  0.44271898  0.49705030     0.17700
C1312       C  0.71683032  0.45769498  0.53486496     0.25700
C1313       C  0.72013342  0.45834476  0.55959923    -0.12000
C1314       C  0.72866265  0.47908972  0.57068216    -0.21200
C1315       C  0.73200739  0.49984423  0.55674846     0.36600
C1316       C  0.72916905  0.49901114  0.53199233    -0.27600
F1317       F  0.70902216  0.43719351  0.52466391    -0.19800
H1318       H  0.71679776  0.44234026  0.56998758     0.15900
F1319       F  0.73993790  0.52045398  0.56662993    -0.23500
H1320       H  0.73380521  0.51463230  0.52153537     0.17800
C1321       C  0.77425735  0.53431240  0.33653191    -0.27500
C1322       C  0.76422691  0.55594058  0.34426522     0.06100
C1323       C  0.74859148  0.55570164  0.36396430     0.25700
C1324       C  0.74411385  0.53448822  0.37634637    -0.12000
C1325       C  0.75459049  0.51294914  0.36901744    -0.25900
C1326       C  0.76943835  0.51297567  0.34864791     0.36500
C1327       C  0.76969805  0.57858908  0.33153085     0.06100
F1328       F  0.73715356  0.57589058  0.37093178    -0.19700
H1329       H  0.73218897  0.53489325  0.39158197     0.15900
F1330       F  0.77994588  0.49259123  0.34081338    -0.23400
H1331       H  0.78619317  0.53399731  0.32130263     0.17700
C1332       C  0.77583661  0.59933025  0.34422113     0.25700
C1333       C  0.77860153  0.62110135  0.33225880    -0.12000
C1334       C  0.77576620  0.62260753  0.30733675    -0.26000
C1335       C  0.77152702  0.60138141  0.29446150     0.36600
C1336       C  0.76833903  0.57971392  0.30651580    -0.27600
F1337       F  0.77923478  0.59854990  0.36822548    -0.19800
H1338       H  0.78251356  0.63688497  0.34265385     0.15900
F1339       F  0.77031238  0.60144283  0.27022996    -0.23500
H1340       H  0.76417992  0.56387932  0.29628476     0.17800
C1341       C  0.75398202  0.38186507  0.37399585    -0.27500
C1342       C  0.75899330  0.38143674  0.34948243     0.06100
C1343       C  0.76110644  0.40295723  0.33681888     0.25700
C1344       C  0.75811106  0.42464318  0.34855476    -0.12000
C1345       C  0.75292507  0.42531780  0.37315704    -0.25900
C1346       C  0.75088423  0.40356621  0.38582132     0.36500
C1347       C  0.76148352  0.35851353  0.33700753     0.06100
F1348       F  0.76646133  0.40298679  0.31315350    -0.19700
H1349       H  0.75988928  0.44093399  0.33824272     0.15900
F1350       F  0.74587278  0.40307410  0.40954204    -0.23400
H1351       H  0.75216007  0.36531990  0.38391154     0.17700
C1352       C  0.77894671  0.34190589  0.34399311     0.25700
C1353       C  0.78140674  0.32047608  0.33159817    -0.12000
C1354       C  0.76647940  0.31535231  0.31210940    -0.26000
C1355       C  0.74859461  0.33180991  0.30555690     0.36600
C1356       C  0.74627710  0.35326452  0.31786682    -0.27600
F1357       F  0.79402242  0.34672530  0.36233324    -0.19800
H1358       H  0.79528786  0.30808273  0.33697132     0.15900
F1359       F  0.73299082  0.32696955  0.28765875    -0.23500
H1360       H  0.73244856  0.36576841  0.31260084     0.17800
C1361       C  0.44564722  0.61408834  0.73217566    -0.27500
C1362       C  0.44279834  0.63849343  0.72702750     0.06100
C1363       C  0.46216877  0.65118915  0.71713458     0.25700
C1364       C  0.48356337  0.63942053  0.71200910    -0.12000
C1365       C  0.48593424  0.61485645  0.71633403    -0.25900
C1366       C  0.46683297  0.60227875  0.72666113     0.36500
C1367       C  0.41953139  0.65024152  0.73190190     0.06100
F1368       F  0.46033431  0.67477277  0.71179958    -0.19700
H1369       H  0.49816446  0.64944097  0.70421253     0.15900
F1370       F  0.46883283  0.57873376  0.73215939    -0.23400
H1371       H  0.43145078  0.60408418  0.74068578     0.17700
C1372       C  0.39792527  0.63864216  0.72631660     0.25700
C1373       C  0.37609255  0.64938374  0.73161422    -0.12000
C1374       C  0.37529878  0.67215657  0.74178110    -0.26000
C1375       C  0.39676346  0.68401836  0.74703232     0.36600
C1376       C  0.41866256  0.67295073  0.74248413    -0.27600
F1377       F  0.39782787  0.61727220  0.71495413    -0.19800
H1378       H  0.35974156  0.64029761  0.72685570     0.15900
F1379       F  0.39655203  0.70615925  0.75683572    -0.23500
H1380       H  0.43492378  0.68210380  0.74743507     0.17800
C1381       C  0.39505490  0.74852247  0.83665353    -0.27500
C1382       C  0.41322133  0.76218159  0.82592529     0.06100
C1383       C  0.40860637  0.77302992  0.80362681     0.25700
C1384       C  0.38655519  0.76984069  0.79228629    -0.12000
C1385       C  0.36842102  0.75631187  0.80313559    -0.25900
C1386       C  0.37281267  0.74587051  0.82562663     0.36500
C1387       C  0.43680827  0.76484367  0.83805781     0.06100
F1388       F  0.42521501  0.78707712  0.79293058    -0.19700
H1389       H  0.38359639  0.77807913  0.77499411     0.15900
F1390       F  0.35602296  0.73215309  0.83650547    -0.23400
H1391       H  0.39820034  0.73944961  0.85347834     0.17700
C1392       C  0.43814064  0.76919861  0.86278410     0.25700
C1393       C  0.46027571  0.77087295  0.87419477    -0.12000
C1394       C  0.48172270  0.76884692  0.86126692    -0.26000
C1395       C  0.48043397  0.76497969  0.83640992     0.36600
C1396       C  0.45823141  0.76271328  0.82508254    -0.27600
F1397       F  0.41803524  0.77249098  0.87592403    -0.19800
H1398       H  0.46055895  0.77416095  0.89324939     0.15900
F1399       F  0.50053503  0.76288491  0.82302306    -0.23500
H1400       H  0.45784038  0.75894580  0.80612545     0.17800
C1401       C  0.99892489  0.50029890  0.80962537    -0.27500
C1402       C  0.01161130  0.48048056  0.80090360     0.06100
C1403       C  0.99883938  0.46108239  0.79150569     0.25700
C1404       C  0.97395702  0.46119121  0.79154589    -0.12000
C1405       C  0.96120561  0.48076227  0.80056930    -0.25900
C1406       C  0.97391945  0.50053977  0.80942017     0.36500
C1407       C  0.03802530  0.47946184  0.80262854     0.06100
F1408       F  0.01043777  0.44206060  0.78200380    -0.19700
H1409       H  0.96463634  0.44594655  0.78423490     0.15900
F1410       F  0.96228238  0.51969437  0.81865019    -0.23400
H1411       H  0.00837876  0.51533376  0.81718936     0.17700
C1412       C  0.05234576  0.49847222  0.79468079     0.25700
C1413       C  0.07720825  0.49704412  0.79659473    -0.12000
C1414       C  0.08834161  0.47653824  0.80613333    -0.26000
C1415       C  0.07392797  0.45748123  0.81391888     0.36600
C1416       C  0.04908035  0.45910537  0.81236543    -0.27600
F1417       F  0.04238926  0.51809912  0.78440518    -0.19800
H1418       H  0.08777664  0.51189969  0.79013462     0.15900
F1419       F  0.08369769  0.43739223  0.82339131    -0.23500
H1420       H  0.03838758  0.44439188  0.81895219     0.17800
C1421       C  0.20250876  0.54033082  0.79807094    -0.27500
C1422       C  0.18974578  0.56190179  0.79619923     0.06100
C1423       C  0.16470778  0.56131934  0.79809258     0.25700
C1424       C  0.15281437  0.53971682  0.80151103    -0.12000
C1425       C  0.16544118  0.51803657  0.80315188    -0.25900
C1426       C  0.19058644  0.51861148  0.80156926     0.36500
C1427       C  0.20240905  0.58481654  0.79157487     0.06100
F1428       F  0.15161563  0.58170503  0.79694280    -0.19700
H1429       H  0.13352267  0.54008570  0.80274921     0.15900
F1430       F  0.20374507  0.49828799  0.80303569    -0.23400
H1431       H  0.22176550  0.54020561  0.79631879     0.17700
C1432       C  0.22312399  0.59112990  0.80437894     0.25700
C1433       C  0.23505662  0.61253817  0.79927194    -0.12000
C1434       C  0.22603601  0.62837550  0.78200165    -0.26000
C1435       C  0.20499374  0.62241169  0.76971410     0.36600
C1436       C  0.19365305  0.60067116  0.77412234    -0.27600
F1437       F  0.23142007  0.57698497  0.82228994    -0.19800
H1438       H  0.25103769  0.61701948  0.80917800     0.15900
F1439       F  0.19575050  0.63731856  0.75289060    -0.23500
H1440       H  0.17803776  0.59615546  0.76367777     0.17800
C1441       C  0.28223611  0.54464425  0.65181191    -0.27500
C1442       C  0.29914353  0.56306682  0.65186621     0.06100
C1443       C  0.32067039  0.56011460  0.63928355     0.25700
C1444       C  0.32525662  0.53886478  0.62705568    -0.12000
C1445       C  0.30872752  0.52007211  0.62774337    -0.25900
C1446       C  0.28702722  0.52320548  0.64002351     0.36500
C1447       C  0.29471645  0.58487315  0.66594603     0.06100
F1448       F  0.33725401  0.57775890  0.63892685    -0.19700
H1449       H  0.34204907  0.53679639  0.61766841     0.15900
F1450       F  0.27037771  0.50562744  0.64044163    -0.23400
H1451       H  0.26556324  0.54667674  0.66141733     0.17700
C1452       C  0.27537747  0.60000646  0.66071088     0.25700
C1453       C  0.27191784  0.62094201  0.67386433    -0.12000
C1454       C  0.28726252  0.62669436  0.69288478    -0.26000
C1455       C  0.30606911  0.61094693  0.69861179     0.36600
C1456       C  0.30989503  0.59044096  0.68501889    -0.27600
F1457       F  0.26016886  0.59476189  0.64260033    -0.19800
H1458       H  0.25714011  0.63259018  0.66928072     0.15900
F1459       F  0.32116471  0.61561280  0.71695967    -0.23500
H1460       H  0.32468074  0.57874723  0.68947237     0.17800
C1461       C  0.23275350  0.80987529  0.63084811    -0.27500
C1462       C  0.22736319  0.79643962  0.61040862     0.06100
C1463       C  0.22730663  0.77135001  0.61230494     0.25700
C1464       C  0.23293087  0.76013468  0.63404150    -0.12000
C1465       C  0.23871465  0.77358983  0.65446068    -0.25900
C1466       C  0.23834639  0.79872628  0.65257033     0.36500
C1467       C  0.22334978  0.80875729  0.58702508     0.06100
F1468       F  0.22174270  0.75761878  0.59316580    -0.19700
H1469       H  0.23291963  0.74081361  0.63478655     0.15900
F1470       F  0.24429601  0.81270896  0.67139868    -0.23400
H1471       H  0.23345852  0.82916957  0.62982831     0.17700
C1472       C  0.20850443  0.82904122  0.58520777     0.25700
C1473       C  0.20649914  0.84150780  0.56351319    -0.12000
C1474       C  0.21898258  0.83391507  0.54309869    -0.26000
C1475       C  0.23355128  0.81347762  0.54483222     0.36600
C1476       C  0.23569519  0.80113233  0.56653956    -0.27600
F1477       F  0.19581277  0.83676125  0.60436163    -0.19800
H1478       H  0.19507123  0.85710744  0.56264739     0.15900
F1479       F  0.24673647  0.80610485  0.52588582    -0.23500
H1480       H  0.24772594  0.78600578  0.56752027     0.17800
C1481       C  0.50417120  0.75826657  0.48262713    -0.27500
C1482       C  0.51540655  0.77261794  0.49962997     0.06100
C1483       C  0.50158574  0.78584448  0.51585046     0.25700
C1484       C  0.47668156  0.78395758  0.51543339    -0.12000
C1485       C  0.46554079  0.76887996  0.49886032    -0.25900
C1486       C  0.47952116  0.75614648  0.48235875     0.36500
C1487       C  0.54132382  0.77005989  0.50234829     0.06100
F1488       F  0.51220829  0.79989468  0.53243866    -0.19700
H1489       H  0.46614135  0.79387813  0.52825031     0.15900
F1490       F  0.46957767  0.74013086  0.46720661    -0.23400
H1491       H  0.51463108  0.74739665  0.47051346     0.17700
C1492       C  0.55044349  0.75937897  0.52313111     0.25700
C1493       C  0.57377219  0.75080535  0.52349162    -0.12000
C1494       C  0.58819044  0.75230953  0.50299720    -0.26000
C1495       C  0.57940413  0.76418171  0.48257126     0.36600
C1496       C  0.55614746  0.77307840  0.48238094    -0.27600
F1497       F  0.53608739  0.75505796  0.54221087    -0.19800
H1498       H  0.58001589  0.74168508  0.53940565     0.15900
F1499       F  0.59284721  0.76646583  0.46250648    -0.23500
H1500       H  0.54916849  0.78102196  0.46613407     0.17800
C1501       C  0.35856163  0.73292983  0.56425225    -0.27500
C1502       C  0.36805981  0.74052520  0.58610538     0.06100
C1503       C  0.38956507  0.75351736  0.58615941     0.25700
C1504       C  0.40120866  0.75874130  0.56470165    -0.12000
C1505       C  0.39148759  0.75145182  0.54279535    -0.25900
C1506       C  0.36988284  0.73851059  0.54280710     0.36500
C1507       C  0.35525687  0.73508946  0.60863453     0.06100
F1508       F  0.39903924  0.76173309  0.60686940    -0.19700
H1509       H  0.41772877  0.76874619  0.56525402     0.15900
F1510       F  0.35975783  0.73073444  0.52221861    -0.23400
H1511       H  0.34234260  0.72244334  0.56374562     0.17700
C1512       C  0.33038754  0.73847750  0.61039532     0.25700
C1513       C  0.31861004  0.73386986  0.63187505    -0.12000
C1514       C  0.33141380  0.72631138  0.65207169    -0.26000
C1515       C  0.35616666  0.72261412  0.65030621     0.36600
C1516       C  0.36788776  0.72667306  0.62866001    -0.27600
F1517       F  0.31757871  0.74721705  0.59170710    -0.19800
H1518       H  0.29956713  0.73715899  0.63299552     0.15900
F1519       F  0.36897592  0.71491707  0.66943719    -0.23500
H1520       H  0.38690393  0.72331252  0.62758312     0.17800
C1521       C  0.43875410  0.34679796  0.72965888    -0.27500
C1522       C  0.43731875  0.32300008  0.73739586     0.06100
C1523       C  0.45847273  0.31087680  0.74356527     0.25700
C1524       C  0.48060829  0.32211707  0.74128157    -0.12000
C1525       C  0.48220888  0.34579222  0.73303674    -0.25900
C1526       C  0.46086818  0.35818629  0.72758943     0.36500
C1527       C  0.41394849  0.31053993  0.73824268     0.06100
F1528       F  0.45772980  0.28817539  0.75209298    -0.19700
H1529       H  0.49652643  0.31215254  0.74596865     0.15900
F1530       F  0.46117278  0.38123755  0.72002825    -0.23400
H1531       H  0.42273218  0.35647481  0.72470933     0.17700
C1532       C  0.39395271  0.32074820  0.74951834     0.25700
C1533       C  0.37242966  0.30813349  0.75089649    -0.12000
C1534       C  0.37037533  0.28508438  0.74113064    -0.26000
C1535       C  0.39029764  0.27528340  0.72918056     0.36600
C1536       C  0.41169107  0.28795046  0.72775795    -0.27600
F1537       F  0.39541911  0.34252925  0.75996191    -0.19800
H1538       H  0.35749666  0.31630216  0.76007263     0.15900
F1539       F  0.38932234  0.25343540  0.71881605    -0.23500
H1540       H  0.42665013  0.28000646  0.71841256     0.17800
C1541       C  0.39196478  0.18724981  0.83783083    -0.27500
C1542       C  0.41322743  0.18922180  0.82462834     0.06100
C1543       C  0.41191257  0.19142813  0.79967618     0.25700
C1544       C  0.38976760  0.19312291  0.78839032    -0.12000
C1545       C  0.36838081  0.19283390  0.80168060    -0.25900
C1546       C  0.36972517  0.18905320  0.82656845     0.36500
C1547       C  0.43655768  0.19079436  0.83703996     0.06100
F1548       F  0.43202408  0.19357212  0.78629817    -0.19700
H1549       H  0.38953340  0.19578619  0.76921728     0.15900
F1550       F  0.34972297  0.18796968  0.84022760    -0.23400
H1551       H  0.39260446  0.18500037  0.85705255     0.17700
C1552       C  0.43970672  0.20704422  0.85587248     0.25700
C1553       C  0.46174339  0.20881883  0.86735740    -0.12000
C1554       C  0.48121613  0.19486814  0.85997750    -0.26000
C1555       C  0.47828952  0.17895928  0.84083083     0.36600
C1556       C  0.45605912  0.17682962  0.82961125    -0.27600
F1557       F  0.42164820  0.22168918  0.86275804    -0.19800
H1558       H  0.46367760  0.22133046  0.88194484     0.15900
F1559       F  0.49660455  0.16483177  0.83358312    -0.23500
H1560       H  0.45400343  0.16410259  0.81523876     0.17800
C1561       C  0.27281028  0.35295445  0.66211579    -0.27500
C1562       C  0.29347238  0.36634438  0.66676678     0.06100
C1563       C  0.30964003  0.35820227  0.68416278     0.25700
C1564       C  0.30512348  0.33712624  0.69678774    -0.12000
C1565       C  0.28450148  0.32363649  0.69221369    -0.25900
C1566       C  0.26830094  0.33174058  0.67472348     0.36500
C1567       C  0.29804945  0.38900515  0.65384374     0.06100
F1568       F  0.33008472  0.37040439  0.68856202    -0.19700
H1569       H  0.31801713  0.33110050  0.70993270     0.15900
F1570       F  0.24781821  0.31959487  0.67035932    -0.23400
H1571       H  0.26002817  0.35913581  0.64894346     0.17700
C1572       C  0.30108940  0.38939952  0.62893171     0.25700
C1573       C  0.30634441  0.41085854  0.61712990    -0.12000
C1574       C  0.30845312  0.43233218  0.62994148    -0.26000
C1575       C  0.30528652  0.43181572  0.65494113     0.36600
C1576       C  0.30021534  0.41034477  0.66667755    -0.27600
F1577       F  0.29969837  0.36891208  0.61613898    -0.19800
H1578       H  0.30872774  0.41065328  0.59792800     0.15900
F1579       F  0.30775257  0.45188281  0.66823410    -0.23500
H1580       H  0.29805100  0.41032995  0.68591574     0.17800
C1581       C  0.16526126  0.38705695  0.81494479    -0.27500
C1582       C  0.18695605  0.38556969  0.80243368     0.06100
C1583       C  0.19689364  0.40648036  0.79271407     0.25700
C1584       C  0.18537267  0.42841480  0.79557252    -0.12000
C1585       C  0.16344120  0.42994957  0.80769139    -0.25900
C1586       C  0.15353815  0.40901139  0.81756871     0.36500
C1587       C  0.19853275  0.36210036  0.79842453     0.06100
F1588       F  0.21713076  0.40553990  0.77938743    -0.19700
H1589       H  0.19322475  0.44412324  0.78744021     0.15900
F1590       F  0.13265892  0.40972252  0.82986329    -0.23400
H1591       H  0.15733500  0.37113391  0.82257488     0.17700
C1592       C  0.22277185  0.35846752  0.80390109     0.25700
C1593       C  0.23394822  0.33693292  0.79807509    -0.12000
C1594       C  0.22115424  0.31851620  0.78688749    -0.26000
C1595       C  0.19663835  0.32186511  0.78222696     0.36600
C1596       C  0.18551864  0.34346907  0.78797502    -0.27600
F1597       F  0.23564669  0.37574767  0.81489608    -0.19800
H1598       H  0.25272613  0.33473417  0.80218927     0.15900
F1599       F  0.18362551  0.30477903  0.77108093    -0.23500
H1600       H  0.16685780  0.34596473  0.78351056     0.17800
C1601       C  0.20330559  0.94941177  0.48243603    -0.27500
C1602       C  0.21524487  0.96175748  0.50068118     0.06100
C1603       C  0.22599136  0.94856403  0.51925284     0.25700
C1604       C  0.22489561  0.92359642  0.51939947    -0.12000
C1605       C  0.21351159  0.91122810  0.50082674    -0.25900
C1606       C  0.20255830  0.92442286  0.48235840     0.36500
C1607       C  0.21664587  0.98828946  0.50012880     0.06100
F1608       F  0.23845491  0.95975206  0.53672402    -0.19700
H1609       H  0.23374561  0.91388383  0.53364282     0.15900
F1610       F  0.19091692  0.91321366  0.46433807    -0.23400
H1611       H  0.19454998  0.95916800  0.46816482     0.17700
C1612       C  0.22413373  0.00048234  0.47940795     0.25700
C1613       C  0.22552985  0.02544518  0.47914943    -0.12000
C1614       C  0.21982603  0.03877774  0.49960381    -0.26000
C1615       C  0.21225897  0.02654948  0.52032548     0.36600
C1616       C  0.21061716  0.00161572  0.52047407    -0.27600
F1617       F  0.23088811  0.98822455  0.45964482    -0.19800
H1618       H  0.23165573  0.03432656  0.46306104     0.15900
F1619       F  0.20599340  0.03864824  0.54035117    -0.23500
H1620       H  0.20446066  0.99267689  0.53652054     0.17800
C1621       C  0.24925775  0.11531327  0.58334835    -0.27500
C1622       C  0.24010727  0.13851163  0.58624336     0.06100
C1623       C  0.22868200  0.14963262  0.56673786     0.25700
C1624       C  0.22600296  0.13755361  0.54512570    -0.12000
C1625       C  0.23427247  0.11403616  0.54253628    -0.25900
C1626       C  0.24626232  0.10308164  0.56179489     0.36500
C1627       C  0.24227297  0.15096603  0.60956582     0.06100
F1628       F  0.21920031  0.17184537  0.56880122    -0.19700
H1629       H  0.21669936  0.14639123  0.53060588     0.15900
F1630       F  0.25539676  0.08071960  0.55973272    -0.23400
H1631       H  0.25876251  0.10662091  0.59781908     0.17700
C1632       C  0.23669328  0.13932421  0.63120182     0.25700
C1633       C  0.23850089  0.15145591  0.65295446    -0.12000
C1634       C  0.24575588  0.17547051  0.65363737    -0.26000
C1635       C  0.25124145  0.18708833  0.63187765     0.36600
C1636       C  0.24965634  0.17487323  0.61024632    -0.27600
F1637       F  0.22907290  0.11633661  0.63133508    -0.19800
H1638       H  0.23423407  0.14197603  0.66930136     0.15900
F1639       F  0.25891611  0.21006333  0.63136060    -0.23500
H1640       H  0.25458038  0.18410698  0.59394364     0.17800
C1641       C  0.21431829  0.11812771  0.41262190    -0.27500
C1642       C  0.22541962  0.14060699  0.41129625     0.06100
C1643       C  0.23352838  0.15113095  0.43263466     0.25700
C1644       C  0.23188765  0.13875769  0.45434381    -0.12000
C1645       C  0.22211367  0.11564417  0.45543140    -0.25900
C1646       C  0.21257776  0.10578436  0.43437706     0.36500
C1647       C  0.22919762  0.15250813  0.38765176     0.06100
F1648       F  0.24409264  0.17292087  0.43246898    -0.19700
H1649       H  0.23908427  0.14706599  0.47022450     0.15900
F1650       F  0.20147904  0.08426942  0.43472155    -0.23400
H1651       H  0.20704226  0.10999367  0.39668885     0.17700
C1652       C  0.23804639  0.13958425  0.36796912     0.25700
C1653       C  0.24235192  0.15102233  0.34610271    -0.12000
C1654       C  0.23840898  0.17569650  0.34334710    -0.26000
C1655       C  0.22935253  0.18858206  0.36296983     0.36600
C1656       C  0.22463300  0.17703803  0.38471405    -0.27600
F1657       F  0.24356915  0.11606482  0.37009749    -0.19800
H1658       H  0.24958741  0.14061132  0.33151522     0.15900
F1659       F  0.22493544  0.21235451  0.36122039    -0.23500
H1660       H  0.21737701  0.18738023  0.39932801     0.17800
C1661       C  0.49697150  0.18316299  0.51990167    -0.27500
C1662       C  0.51161528  0.19061454  0.50096817     0.06100
C1663       C  0.50103367  0.19972313  0.48002389     0.25700
C1664       C  0.47635194  0.20225523  0.47857870    -0.12000
C1665       C  0.46180117  0.19627097  0.49810906    -0.25900
C1666       C  0.47229054  0.18608741  0.51863601     0.36500
C1667       C  0.53783575  0.19064382  0.50371254     0.06100
F1668       F  0.51456521  0.20768773  0.46152058    -0.19700
H1669       H  0.46879893  0.21014735  0.46257662     0.15900
F1670       F  0.45885928  0.17939826  0.53770893    -0.23400
H1671       H  0.50470991  0.17558487  0.53596480     0.17700
C1672       C  0.54846410  0.20034360  0.52428169     0.25700
C1673       C  0.57309715  0.20342848  0.52525079    -0.12000
C1674       C  0.58748764  0.19736498  0.50565104    -0.26000
C1675       C  0.57706212  0.18641075  0.48566639     0.36600
C1676       C  0.55244348  0.18286376  0.48488593    -0.27600
F1677       F  0.53502144  0.20837892  0.54278869    -0.19800
H1678       H  0.58073281  0.21186114  0.54086565     0.15900
F1679       F  0.59054314  0.17944360  0.46677112    -0.23500
H1680       H  0.54468030  0.17468242  0.46920469     0.17800
C1681       C  0.36023921  0.21026367  0.62716462    -0.27500
C1682       C  0.35252930  0.22427370  0.60786743     0.06100
C1683       C  0.33356699  0.24038442  0.61098755     0.25700
C1684       C  0.32259469  0.24242909  0.63325907    -0.12000
C1685       C  0.33043385  0.22851620  0.65270578    -0.25900
C1686       C  0.34950405  0.21242375  0.64944262     0.36500
C1687       C  0.36471043  0.22201718  0.58472154     0.06100
F1688       F  0.32598177  0.25443335  0.59267777    -0.19700
H1689       H  0.30799270  0.25496491  0.63528889     0.15900
F1690       F  0.35742057  0.19821724  0.66749169    -0.23400
H1691       H  0.37455549  0.19743228  0.62490798     0.17700
C1692       C  0.38972019  0.22322595  0.58356435     0.25700
C1693       C  0.40136232  0.21993681  0.56189201    -0.12000
C1694       C  0.38827778  0.21554895  0.54100467    -0.26000
C1695       C  0.36319701  0.21453912  0.54208858     0.36600
C1696       C  0.35153602  0.21773288  0.56386978    -0.27600
F1697       F  0.40288004  0.22786812  0.60337724    -0.19800
H1698       H  0.42066302  0.22110645  0.56143050     0.15900
F1699       F  0.35001029  0.20972555  0.52233704    -0.23500
H1700       H  0.33225708  0.21635128  0.56456906     0.17800
C1701       C  0.35738041  0.24014213  0.43214220    -0.27500
C1702       C  0.36772663  0.23313464  0.41049784     0.06100
C1703       C  0.39039015  0.22239932  0.41047435     0.25700
C1704       C  0.40191563  0.21760515  0.43202279    -0.12000
C1705       C  0.39098585  0.22338229  0.45386891    -0.25900
C1706       C  0.36877383  0.23527517  0.45369429     0.36500
C1707       C  0.35377653  0.23485628  0.38834375     0.06100
F1708       F  0.40074331  0.21526945  0.38974825    -0.19700
H1709       H  0.41904388  0.20861509  0.43156705     0.15900
F1710       F  0.35774440  0.24190280  0.47423407    -0.23400
H1711       H  0.34006094  0.24879182  0.43235742     0.17700
C1712       C  0.33088812  0.22464572  0.38729601     0.25700
C1713       C  0.31824428  0.22473145  0.36591571    -0.12000
C1714       C  0.32850123  0.23442662  0.34525220    -0.26000
C1715       C  0.35118438  0.24499949  0.34629067     0.36600
C1716       C  0.36367561  0.24536323  0.36783372    -0.27600
F1717       F  0.32131230  0.21346707  0.40661149    -0.19800
H1718       H  0.30084316  0.21632310  0.36523396     0.15900
F1719       F  0.36113350  0.25501171  0.32653809    -0.23500
H1720       H  0.38119710  0.25349801  0.36846284     0.17800
C1721       C  0.39804364  0.63771295  0.23492845    -0.27500
C1722       C  0.41722894  0.64341716  0.24986249     0.06100
C1723       C  0.41457301  0.66173819  0.26680156     0.25700
C1724       C  0.39314203  0.67454521  0.26818774    -0.12000
C1725       C  0.37405425  0.66903464  0.25289580    -0.25900
C1726       C  0.37666179  0.65022796  0.23641781     0.36500
C1727       C  0.44035210  0.63132605  0.24612353     0.06100
F1728       F  0.43266695  0.66719992  0.28195231    -0.19700
H1729       H  0.39147538  0.68874212  0.28117434     0.15900
F1730       F  0.35896503  0.64454993  0.22086804    -0.23400
H1731       H  0.39988606  0.62403348  0.22141443     0.17700
C1732       C  0.44160997  0.60636201  0.24396487     0.25700
C1733       C  0.46313185  0.59538774  0.23791703    -0.12000
C1734       C  0.48379559  0.60905627  0.23396822    -0.26000
C1735       C  0.48252850  0.63405032  0.23637531     0.36600
C1736       C  0.46097625  0.64499409  0.24240114    -0.27600
F1737       F  0.42202352  0.59258406  0.24768820    -0.19800
H1738       H  0.46359571  0.57612036  0.23642421     0.15900
F1739       F  0.50182581  0.64806367  0.23213052    -0.23500
H1740       H  0.46021065  0.66429090  0.24336380     0.17800
C1741       C  0.39678653  0.76113205  0.16137854    -0.27500
C1742       C  0.41644755  0.76906764  0.17468092     0.06100
C1743       C  0.41319835  0.77484107  0.19888214     0.25700
C1744       C  0.39100686  0.77128647  0.20986208    -0.12000
C1745       C  0.37153318  0.76213751  0.19688457    -0.25900
C1746       C  0.37454097  0.75768121  0.17226999     0.36500
C1747       C  0.44049001  0.76969764  0.16352133     0.06100
F1748       F  0.43156001  0.78370933  0.21193902    -0.19700
H1749       H  0.38919344  0.77530442  0.22869465     0.15900
F1750       F  0.35644188  0.74870517  0.15893461    -0.23400
H1751       H  0.39893358  0.75662186  0.14269237     0.17700
C1752       C  0.45929556  0.75594912  0.17302557     0.25700
C1753       C  0.48152620  0.75533275  0.16160152    -0.12000
C1754       C  0.48525632  0.76790793  0.14018507    -0.26000
C1755       C  0.46648555  0.78183969  0.13076748     0.36600
C1756       C  0.44434814  0.78271953  0.14239873    -0.27600
F1757       F  0.45576443  0.74207971  0.19264267    -0.19800
H1758       H  0.49556226  0.74421835  0.16899659     0.15900
F1759       F  0.46955322  0.79472147  0.11041035    -0.23500
H1760       H  0.43008271  0.79338668  0.13478716     0.17800
C1761       C  0.39443488  0.73478609  0.41481278    -0.27500
C1762       C  0.36949435  0.73581041  0.41339297     0.06100
C1763       C  0.35614542  0.74295616  0.43333597     0.25700
C1764       C  0.36777288  0.74942507  0.45434056    -0.12000
C1765       C  0.39282302  0.74896750  0.45565142    -0.25900
C1766       C  0.40610057  0.74143276  0.43567349     0.36500
C1767       C  0.35779294  0.73157373  0.39036495     0.06100
F1768       F  0.33199139  0.74463819  0.43216439    -0.19700
H1769       H  0.35717379  0.75517560  0.46946286     0.15900
F1770       F  0.43028436  0.74013152  0.43625205    -0.23400
H1771       H  0.40489816  0.72916431  0.39953788     0.17700
C1772       C  0.36452433  0.74520634  0.37044450     0.25700
C1773       C  0.35310475  0.74196945  0.34868663    -0.12000
C1774       C  0.33451961  0.72531302  0.34644795    -0.26000
C1775       C  0.32783346  0.71152050  0.36646226     0.36600
C1776       C  0.33952433  0.71463255  0.38827247    -0.27600
F1777       F  0.38146803  0.76241296  0.37232823    -0.19800
H1778       H  0.35832552  0.75316774  0.33376128     0.15900
F1779       F  0.31009157  0.69510868  0.36501268    -0.23500
H1780       H  0.33426197  0.70395874  0.40356548     0.17800
C1781       C  0.21786438  0.80147366  0.42963878    -0.27500
C1782       C  0.22777378  0.81390359  0.41017685     0.06100
C1783       C  0.23390907  0.83804014  0.41305242     0.25700
C1784       C  0.23029713  0.84939838  0.43501767    -0.12000
C1785       C  0.22079993  0.83687976  0.45469011    -0.25900
C1786       C  0.21446782  0.81274100  0.45169832     0.36500
C1787       C  0.23259937  0.80134411  0.38731200     0.06100
F1788       F  0.24436171  0.85035343  0.39493242    -0.19700
H1789       H  0.23558524  0.86789392  0.43680514     0.15900
F1790       F  0.20473035  0.80005584  0.46995349    -0.23400
H1791       H  0.21282515  0.78291519  0.42774809     0.17700
C1792       C  0.24641741  0.78038546  0.38710195     0.25700
C1793       C  0.25141201  0.76881442  0.36558355    -0.12000
C1794       C  0.24291314  0.77792181  0.34372431    -0.26000
C1795       C  0.22890672  0.79885048  0.34391728     0.36600
C1796       C  0.22383326  0.81040315  0.36554489    -0.27600
F1797       F  0.25586280  0.77156661  0.40765564    -0.19800
H1798       H  0.26253240  0.75297424  0.36599772     0.15900
F1799       F  0.21981759  0.80794544  0.32331643    -0.23500
H1800       H  0.21296118  0.82641330  0.36533229     0.17800
C1801       C  0.99931419  0.45635123  0.17958547    -0.27500
C1802       C  0.01129282  0.47717255  0.18690462     0.06100
C1803       C  0.99759243  0.49667736  0.19487225     0.25700
C1804       C  0.97270351  0.49501581  0.19609318    -0.12000
C1805       C  0.96083365  0.47380482  0.18983923    -0.25900
C1806       C  0.97444162  0.45448576  0.18135902     0.36500
C1807       C  0.03794769  0.47781723  0.18749576     0.06100
F1808       F  0.00822340  0.51697762  0.20262865    -0.19700
H1809       H  0.96275695  0.51021116  0.20272674     0.15900
F1810       F  0.96379352  0.43382263  0.17465340    -0.23400
H1811       H  0.00929326  0.44127970  0.17274054     0.17700
C1812       C  0.05092920  0.45829528  0.19665875     0.25700
C1813       C  0.07586054  0.45874136  0.19724064    -0.12000
C1814       C  0.08863145  0.47888321  0.18937754    -0.26000
C1815       C  0.07566507  0.49878602  0.18087665     0.36600
C1816       C  0.05064647  0.49804012  0.17960987    -0.27600
F1817       F  0.03951048  0.43900795  0.20590689    -0.19800
H1818       H  0.08516857  0.44333065  0.20438086     0.15900
F1819       F  0.08704770  0.51888250  0.17351733    -0.23500
H1820       H  0.04121301  0.51330598  0.17233692     0.17800
C1821       C  0.19587926  0.61045246  0.19189413    -0.27500
C1822       C  0.20373801  0.58858806  0.20165132     0.06100
C1823       C  0.22341696  0.58884014  0.21732159     0.25700
C1824       C  0.23467726  0.61038908  0.22315499    -0.12000
C1825       C  0.22642539  0.63230457  0.21389529    -0.25900
C1826       C  0.20688110  0.63207917  0.19808994     0.36500
C1827       C  0.19060424  0.56588322  0.19660105     0.06100
F1828       F  0.23114288  0.56839045  0.22789344    -0.19700
H1829       H  0.24952645  0.60998903  0.23555487     0.15900
F1830       F  0.19863143  0.65269716  0.18829660    -0.23400
H1831       H  0.18105086  0.61082209  0.17948573     0.17700
C1832       C  0.16555659  0.56496288  0.19841539     0.25700
C1833       C  0.15338634  0.54336320  0.19556881    -0.12000
C1834       C  0.16575289  0.52192578  0.19116120    -0.26000
C1835       C  0.19078538  0.52293513  0.18844158     0.36600
C1836       C  0.20297603  0.54468526  0.19107982    -0.27600
F1837       F  0.15281642  0.58471442  0.20429509    -0.19800
H1838       H  0.13417621  0.54337380  0.19776162     0.15900
F1839       F  0.20357316  0.50297594  0.18337087    -0.23500
H1840       H  0.22220446  0.54490733  0.18904876     0.17800
C1841       C  0.22192091  0.36066059  0.19797230    -0.27500
C1842       C  0.19886131  0.36480078  0.20705912     0.06100
C1843       C  0.18736546  0.34614523  0.21953089     0.25700
C1844       C  0.19885836  0.32416825  0.22302177    -0.12000
C1845       C  0.22212973  0.32028872  0.21443378    -0.25900
C1846       C  0.23352343  0.33877808  0.20173350     0.36500
C1847       C  0.18692769  0.38844376  0.20340430     0.06100
F1848       F  0.16533089  0.34936290  0.22911976    -0.19700
H1849       H  0.18978568  0.31038188  0.23315062     0.15900
F1850       F  0.25576188  0.33560590  0.19262032    -0.23400
H1851       H  0.23098215  0.37438513  0.18777495     0.17700
C1852       C  0.19924342  0.41005912  0.20709203     0.25700
C1853       C  0.18773563  0.43207866  0.20360688    -0.12000
C1854       C  0.16359203  0.43315840  0.19671886    -0.26000
C1855       C  0.15131103  0.41145911  0.19307466     0.36600
C1856       C  0.16293700  0.38952945  0.19617649    -0.27600
F1857       F  0.22221106  0.40996391  0.21482463    -0.19800
H1858       H  0.19767440  0.44832375  0.20678778     0.15900
F1859       F  0.12805399  0.41122227  0.18626624    -0.23500
H1860       H  0.15310336  0.37327975  0.19271222     0.17800
C1861       C  0.33331031  0.49635178  0.47363656    -0.27500
C1862       C  0.34859147  0.47906687  0.48347433     0.06100
C1863       C  0.35873097  0.46173655  0.46836309     0.25700
C1864       C  0.35228803  0.46082676  0.44419027    -0.12000
C1865       C  0.33614298  0.47753437  0.43470396    -0.25900
C1866       C  0.32721003  0.49573082  0.44954038     0.36500
C1867       C  0.35021199  0.47706929  0.50983110     0.06100
F1868       F  0.37444672  0.44544501  0.47711419    -0.19700
H1869       H  0.35978246  0.44702793  0.43292735     0.15900
F1870       F  0.31129114  0.51206177  0.44118579    -0.23400
H1871       H  0.32486973  0.50957296  0.48493011     0.17700
C1872       C  0.35332510  0.49739864  0.52416627     0.25700
C1873       C  0.34828130  0.49636473  0.54862245    -0.12000
C1874       C  0.34013830  0.47505553  0.55925186    -0.26000
C1875       C  0.33927052  0.45422040  0.54521186     0.36600
C1876       C  0.34417324  0.45534220  0.52078196    -0.27600
F1877       F  0.36004576  0.51853171  0.51430790    -0.19800
H1878       H  0.34973991  0.51257444  0.55900463     0.15900
F1879       F  0.33196262  0.43305774  0.55450902    -0.23500
H1880       H  0.34143732  0.43949149  0.51010571     0.17800
C1881       C  0.28351933  0.60525581  0.34143103    -0.27500
C1882       C  0.29364428  0.58589861  0.32927381     0.06100
C1883       C  0.30053820  0.58846969  0.30537356     0.25700
C1884       C  0.29727055  0.61017242  0.29370476    -0.12000
C1885       C  0.28714997  0.62980428  0.30569625    -0.25900
C1886       C  0.28025172  0.62711103  0.32980128     0.36500
C1887       C  0.29798556  0.56321858  0.34169690     0.06100
F1888       F  0.31118764  0.57017878  0.29357599    -0.19700
H1889       H  0.30300694  0.61158552  0.27527409     0.15900
F1890       F  0.27052316  0.64547591  0.34223849    -0.23400
H1891       H  0.27822438  0.60341230  0.35996625     0.17700
C1892       C  0.31360334  0.56231875  0.36121059     0.25700
C1893       C  0.31895981  0.54048627  0.37191115    -0.12000
C1894       C  0.30886825  0.51920560  0.36327849    -0.26000
C1895       C  0.29304217  0.52024021  0.34375107     0.36600
C1896       C  0.28769121  0.54215036  0.33309081    -0.27600
F1897       F  0.32432584  0.58244308  0.36932691    -0.19800
H1898       H  0.33131345  0.54024521  0.38679630     0.15900
F1899       F  0.28246945  0.50026323  0.33513251    -0.23500
H1900       H  0.27558017  0.54271894  0.31800416     0.17800
C1901       C  0.30262279  0.38852385  0.36491746    -0.27500
C1902       C  0.29955772  0.38829807  0.34004650     0.06100
C1903       C  0.30143494  0.40977851  0.32717825     0.25700
C1904       C  0.30664156  0.43102906  0.33902335    -0.12000
C1905       C  0.31015957  0.43133920  0.36393407    -0.25900
C1906       C  0.30798253  0.40977804  0.37681391     0.36500
C1907       C  0.29469631  0.36560364  0.32756885     0.06100
F1908       F  0.29784400  0.41027313  0.30318182    -0.19700
H1909       H  0.30800402  0.44727924  0.32857345     0.15900
F1910       F  0.31060658  0.40918319  0.40090712    -0.23400
H1911       H  0.30114663  0.37211413  0.37510831     0.17700
C1912       C  0.30936817  0.35818474  0.30863792     0.25700
C1913       C  0.30446407  0.33701624  0.29660751    -0.12000
C1914       C  0.28500781  0.32267315  0.30334069    -0.26000
C1915       C  0.27053989  0.32986735  0.32259160     0.36600
C1916       C  0.27539750  0.35120448  0.33456956    -0.27600
F1917       F  0.32879824  0.37113217  0.30213625    -0.19800
H1918       H  0.31620145  0.33163828  0.28219885     0.15900
F1919       F  0.25141644  0.31665029  0.32944807    -0.23500
H1920       H  0.26390034  0.35668664  0.34912643     0.17800
C1921       C  0.11237685  0.26296239  0.35809594    -0.27500
C1922       C  0.11388349  0.27476773  0.33594654     0.06100
C1923       C  0.09352606  0.28659072  0.32703997     0.25700
C1924       C  0.07215501  0.28632410  0.34003173    -0.12000
C1925       C  0.07077211  0.27460749  0.36225013    -0.25900
C1926       C  0.09118216  0.26302761  0.37123832     0.36500
C1927       C  0.13645740  0.27353329  0.32201701     0.06100
F1928       F  0.09436658  0.29870245  0.30600502    -0.19700
H1929       H  0.05671402  0.29552694  0.33282391     0.15900
F1930       F  0.09045916  0.25094893  0.39228933    -0.23400
H1931       H  0.12756813  0.25318150  0.36506126     0.17700
C1932       C  0.15864212  0.27721558  0.33318463     0.25700
C1933       C  0.17991470  0.27261990  0.32094692    -0.12000
C1934       C  0.17962131  0.26449492  0.29720112    -0.26000
C1935       C  0.15734044  0.26239934  0.28551320     0.36600
C1936       C  0.13607918  0.26672036  0.29791024    -0.27600
F1937       F  0.15975735  0.28494007  0.35611631    -0.19800
H1938       H  0.19665044  0.27494529  0.33033471     0.15900
F1939       F  0.15584364  0.25512271  0.26244708    -0.23500
H1940       H  0.11925010  0.26367470  0.28890308     0.17800
C1941       C  0.89464033  0.25633480  0.34313454    -0.27500
C1942       C  0.91447357  0.26274540  0.32910711     0.06100
C1943       C  0.91157731  0.26498695  0.30425177     0.25700
C1944       C  0.88950974  0.26031764  0.29372754    -0.12000
C1945       C  0.86968953  0.25357591  0.30767875    -0.25900
C1946       C  0.87240914  0.25204534  0.33264898     0.36500
C1947       C  0.93813939  0.26652894  0.34043593     0.06100
F1948       F  0.92998701  0.27196747  0.29008515    -0.19700
H1949       H  0.88802153  0.26195363  0.27449507     0.15900
F1950       F  0.85389404  0.24569969  0.34695108    -0.23400
H1951       H  0.89645148  0.25410239  0.36227477     0.17700
C1952       C  0.94025845  0.27978693  0.36163857     0.25700
C1953       C  0.96241494  0.28217592  0.37279227    -0.12000
C1954       C  0.98297168  0.27190292  0.36279230    -0.26000
C1955       C  0.98104792  0.25919003  0.34126124     0.36600
C1956       C  0.95878077  0.25632717  0.33038605    -0.27600
F1957       F  0.92097616  0.29070337  0.37145991    -0.19800
H1958       H  0.96352867  0.29219977  0.38927242     0.15900
F1959       F  0.00044031  0.24857627  0.33130238    -0.23500
H1960       H  0.95761169  0.24561273  0.31436381     0.17800
C1961       C  0.15272627  0.13446291  0.23529325    -0.27500
C1962       C  0.13484438  0.14699822  0.22285592     0.06100
C1963       C  0.13854594  0.17100462  0.21688752     0.25700
C1964       C  0.15978522  0.18222709  0.22308974    -0.12000
C1965       C  0.17786468  0.16994259  0.23568765    -0.25900
C1966       C  0.17404309  0.14581472  0.24184441     0.36500
C1967       C  0.11195005  0.13538685  0.21685550     0.06100
F1968       F  0.12171220  0.18357188  0.20470979    -0.19700
H1969       H  0.16199403  0.20069963  0.21777883     0.15900
F1970       F  0.19064470  0.13322567  0.25429337    -0.23400
H1971       H  0.14996810  0.11597038  0.24027987     0.17700
C1972       C  0.11123070  0.11494266  0.20245653     0.25700
C1973       C  0.08937626  0.10399824  0.19732813    -0.12000
C1974       C  0.06786029  0.11319820  0.20654609    -0.26000
C1975       C  0.06872304  0.13408490  0.22059925     0.36600
C1976       C  0.09055215  0.14498846  0.22557637    -0.27600
F1977       F  0.13163935  0.10573163  0.19317335    -0.19800
H1978       H  0.08935440  0.08815169  0.18630427     0.15900
F1979       F  0.04868293  0.14364819  0.23032651    -0.23500
H1980       H  0.09082107  0.16075418  0.23673502     0.17800
C1981       C  0.94246894  0.10465602  0.23624647    -0.27500
C1982       C  0.93754867  0.12886786  0.23198574     0.06100
C1983       C  0.95435737  0.14279945  0.21945934     0.25700
C1984       C  0.97585818  0.13276599  0.21187788    -0.12000
C1985       C  0.98066781  0.10857265  0.21600644    -0.25900
C1986       C  0.96372929  0.09448201  0.22815396     0.36500
C1987       C  0.91495907  0.13961263  0.24050191     0.06100
F1988       F  0.94973509  0.16596906  0.21395669    -0.19700
H1989       H  0.98855115  0.14378943  0.20228717     0.15900
F1990       F  0.96801398  0.07106979  0.23288170    -0.23400
H1991       H  0.92997748  0.09366237  0.24612226     0.17700
C1992       C  0.89287366  0.12835783  0.23644099     0.25700
C1993       C  0.87164673  0.13986671  0.24258616    -0.12000
C1994       C  0.87209377  0.16290289  0.25227243    -0.26000
C1995       C  0.89411150  0.17374714  0.25729005     0.36600
C1996       C  0.91534104  0.16196567  0.25179805    -0.27600
F1997       F  0.89166484  0.10700884  0.22511563    -0.19800
H1998       H  0.85479458  0.13139558  0.23835500     0.15900
F1999       F  0.89509857  0.19589137  0.26703664    -0.23500
H2000       H  0.93214360  0.17064263  0.25575002     0.17800
C2001       C  0.89709290  0.67691632  0.33854272    -0.27500
C2002       C  0.91840701  0.67995705  0.32569386     0.06100
C2003       C  0.91730724  0.68454504  0.30104106     0.25700
C2004       C  0.89521896  0.68736764  0.28982110    -0.12000
C2005       C  0.87377379  0.68576196  0.30294413    -0.25900
C2006       C  0.87497824  0.67981074  0.32739055     0.36500
C2007       C  0.94154787  0.67993228  0.33843686     0.06100
F2008       F  0.93755056  0.68771563  0.28805976    -0.19700
H2009       H  0.89504797  0.69181825  0.27097426     0.15900
F2010       F  0.85491499  0.67744952  0.34078770    -0.23400
H2011       H  0.89759499  0.67285321  0.35747458     0.17700
C2012       C  0.94463226  0.69419038  0.35883014     0.25700
C2013       C  0.96646745  0.69442858  0.37074206    -0.12000
C2014       C  0.98571682  0.68072389  0.36244359    -0.26000
C2015       C  0.98274068  0.66643434  0.34207028     0.36600
C2016       C  0.96076430  0.66605858  0.33018258    -0.27600
F2017       F  0.92670079  0.70836003  0.36693083    -0.19800
H2018       H  0.96843872  0.70562213  0.38636451     0.15900
F2019       F  0.00071198  0.65217716  0.33424018    -0.23500
H2020       H  0.95863347  0.65469417  0.31471555     0.17800
C2021       C  0.16239701  0.68645578  0.34029569    -0.27500
C2022       C  0.14106262  0.68455661  0.32723804     0.06100
C2023       C  0.14214127  0.68537970  0.30214175     0.25700
C2024       C  0.16391691  0.68895932  0.29050055    -0.12000
C2025       C  0.18523610  0.69178688  0.30350608    -0.25900
C2026       C  0.18427128  0.68994414  0.32866602     0.36500
C2027       C  0.11768990  0.68310780  0.33982473     0.06100
F2028       F  0.12208518  0.68282595  0.28878723    -0.19700
H2029       H  0.16390864  0.68998295  0.27117490     0.15900
F2030       F  0.20422784  0.69228314  0.34221292    -0.23400
H2031       H  0.16205039  0.68608035  0.35964157     0.17700
C2032       C  0.11411103  0.66729430  0.35912548     0.25700
C2033       C  0.09229252  0.66706212  0.37139985    -0.12000
C2034       C  0.07348794  0.68203329  0.36420090    -0.26000
C2035       C  0.07686386  0.69747422  0.34465661     0.36600
C2036       C  0.09884152  0.69821047  0.33285195    -0.27600
F2037       F  0.13145802  0.65165959  0.36572195    -0.19800
H2038       H  0.08988091  0.65480466  0.38621646     0.15900
F2039       F  0.05914796  0.71242042  0.33744422    -0.23500
H2040       H  0.10123074  0.71088815  0.31839542     0.17800
C2041       C  0.04496367  0.95240277  0.19858443    -0.27500
C2042       C  0.02596332  0.96239361  0.18566362     0.06100
C2043       C  0.00778827  0.94739293  0.17707101     0.25700
C2044       C  0.00828533  0.92294286  0.18220980    -0.12000
C2045       C  0.02698016  0.91306103  0.19579210    -0.25900
C2046       C  0.04552595  0.92804054  0.20366710     0.36500
C2047       C  0.02430607  0.98866648  0.18359426     0.06100
F2048       F  0.98947944  0.95640550  0.16392987    -0.19700
H2049       H  0.99396414  0.91175498  0.17567824     0.15900
F2050       F  0.06358936  0.91949656  0.21741000    -0.23400
H2051       H  0.05892145  0.96369849  0.20570408     0.17700
C2052       C  0.00389535  0.00059434  0.19189357     0.25700
C2053       C  0.00379669  0.02535392  0.19371228    -0.12000
C2054       C  0.02413603  0.03885003  0.18771315    -0.26000
C2055       C  0.04417037  0.02700954  0.17819879     0.36600
C2056       C  0.04420328  0.00209645  0.17624537    -0.27600
F2057       F  0.98468343  0.98827676  0.20007556    -0.19800
H2058       H  0.98804124  0.03378185  0.20110219     0.15900
F2059       F  0.06387398  0.03931621  0.17131516    -0.23500
H2060       H  0.06007412  0.99317566  0.16970110     0.17800
C2061       C  0.95738972  0.80465231  0.21105579    -0.27500
C2062       C  0.93909904  0.81635659  0.22368328     0.06100
C2063       C  0.94284617  0.83988149  0.23149860     0.25700
C2064       C  0.96430818  0.85150942  0.22644897    -0.12000
C2065       C  0.98267843  0.83970769  0.21416189    -0.25900
C2066       C  0.97910718  0.81613616  0.20648349     0.36500
C2067       C  0.91669797  0.80357439  0.22966733     0.06100
F2068       F  0.92623210  0.85123255  0.24500484    -0.19700
H2069       H  0.96692378  0.86952141  0.23292009     0.15900
F2070       F  0.99645516  0.80437060  0.19431313    -0.23400
H2071       H  0.95486923  0.78653760  0.20484720     0.17700
C2072       C  0.89418190  0.81393562  0.22525747     0.25700
C2073       C  0.87330677  0.80178574  0.23160957    -0.12000
C2074       C  0.87453092  0.77899622  0.24204266    -0.26000
C2075       C  0.89698885  0.76862558  0.24640889     0.36600
C2076       C  0.91784249  0.78085577  0.24029546    -0.27600
F2077       F  0.89233763  0.83543087  0.21412350    -0.19800
H2078       H  0.85614311  0.80984121  0.22765289     0.15900
F2079       F  0.89875902  0.74683587  0.25697042    -0.23500
H2080       H  0.93496753  0.77266698  0.24410004     0.17800
C2081       C  0.11126841  0.84272157  0.23480569    -0.27500
C2082       C  0.11426745  0.81820502  0.23071653     0.06100
C2083       C  0.09503615  0.80500856  0.22143763     0.25700
C2084       C  0.07329190  0.81622112  0.21633032    -0.12000
C2085       C  0.07041112  0.84081417  0.22006806    -0.25900
C2086       C  0.08961464  0.85397651  0.22954247     0.36500
C2087       C  0.13742404  0.80649535  0.23613101     0.06100
F2088       F  0.09749505  0.78140570  0.21661567    -0.19700
H2089       H  0.05885210  0.80574334  0.20893589     0.15900
F2090       F  0.08733557  0.87759820  0.23435417    -0.23400
H2091       H  0.12567032  0.85314534  0.24235034     0.17700
C2092       C  0.15902410  0.81608876  0.22754928     0.25700
C2093       C  0.18061801  0.80433290  0.23198764    -0.12000
C2094       C  0.18099230  0.78266929  0.24462648    -0.26000
C2095       C  0.15955053  0.77335404  0.25372670     0.36600
C2096       C  0.13799154  0.78530630  0.24964236    -0.27600
F2097       F  0.15915751  0.83619090  0.21392805    -0.19800
H2098       H  0.19698215  0.81163229  0.22467536     0.15900
F2099       F  0.15948710  0.75281809  0.26668327    -0.23500
H2100       H  0.12165658  0.77790897  0.25689477     0.17800
C2101       C  0.04388387  0.67029296  0.52793761    -0.27500
C2102       C  0.02516186  0.68230745  0.51635898     0.06100
C2103       C  0.00616391  0.69135485  0.53016231     0.25700
C2104       C  0.00624077  0.68862939  0.55506765    -0.12000
C2105       C  0.02536186  0.67714541  0.56665650    -0.25900
C2106       C  0.04413812  0.66782720  0.55273228     0.36500
C2107       C  0.02542285  0.68439885  0.48988791     0.06100
F2108       F  0.98790262  0.70343856  0.51969213    -0.19700
H2109       H  0.99164248  0.69608266  0.56533299     0.15900
F2110       F  0.06267628  0.65595970  0.56296211    -0.23400
H2111       H  0.05833561  0.66252217  0.51769859     0.17700
C2112       C  0.04632121  0.69116883  0.47761052     0.25700
C2113       C  0.04711420  0.69066887  0.45263867    -0.12000
C2114       C  0.02703515  0.68374188  0.43934568    -0.26000
C2115       C  0.00582878  0.67783093  0.45168178     0.36600
C2116       C  0.00517840  0.67804659  0.47663375    -0.27600
F2117       F  0.06599806  0.69835253  0.48976047    -0.19800
H2118       H  0.06349997  0.69576432  0.44371147     0.15900
F2119       F  0.98584997  0.67102051  0.43980699    -0.23500
H2120       H  0.98898633  0.67245901  0.48562224     0.17800
C2121       C  0.09897067  0.65831272  0.67237599    -0.27500
C2122       C  0.11890806  0.66829903  0.66081962     0.06100
C2123       C  0.11604182  0.67818279  0.63789099     0.25700
C2124       C  0.09342072  0.67912476  0.62736507    -0.12000
C2125       C  0.07320217  0.67034724  0.63949117    -0.25900
C2126       C  0.07630016  0.65939561  0.66191908     0.36500
C2127       C  0.14172632  0.67119797  0.67393717     0.06100
F2128       F  0.13480911  0.68823052  0.62626461    -0.19700
H2129       H  0.09161943  0.68750625  0.60998507     0.15900
F2130       F  0.05749783  0.64967210  0.67372274    -0.23400
H2131       H  0.10088127  0.65025360  0.68989655     0.17700
C2132       C  0.14162653  0.68242267  0.69632459     0.25700
C2133       C  0.16299207  0.68766481  0.70783248    -0.12000
C2134       C  0.18507744  0.68204782  0.69730996    -0.26000
C2135       C  0.18527850  0.66996046  0.67525948     0.36600
C2136       C  0.16371302  0.66464916  0.66367347    -0.27600
F2137       F  0.12085270  0.68969745  0.70648566    -0.19800
H2138       H  0.16215677  0.69711485  0.72466599     0.15900
F2139       F  0.20618414  0.66337708  0.66488308    -0.23500
H2140       H  0.16416359  0.65574401  0.64653282     0.17800
C2141       C  0.89843868  0.69658970  0.66838021    -0.27500
C2142       C  0.91776258  0.68788266  0.68190008     0.06100
C2143       C  0.91452090  0.68424205  0.70659397     0.25700
C2144       C  0.89234099  0.68887086  0.71726562    -0.12000
C2145       C  0.87287892  0.69726706  0.70364007    -0.25900
C2146       C  0.87630758  0.70126116  0.67900827     0.36500
C2147       C  0.94113913  0.68312824  0.66998496     0.06100
F2148       F  0.93262494  0.67581578  0.72038225    -0.19700
H2149       H  0.89041069  0.68580152  0.73628657     0.15900
F2150       F  0.85860192  0.71053906  0.66524392    -0.23400
H2151       H  0.90061321  0.70026872  0.64949381     0.17700
C2152       C  0.94205951  0.67076271  0.64814215     0.25700
C2153       C  0.96364202  0.66834361  0.63579121    -0.12000
C2154       C  0.98495858  0.67764188  0.64511903    -0.26000
C2155       C  0.98431692  0.68904302  0.66751187     0.36600
C2156       C  0.96257242  0.69191624  0.67966728    -0.27600
F2157       F  0.92205846  0.66087751  0.63874047    -0.19800
H2158       H  0.96368077  0.65909739  0.61882471     0.15900
F2159       F  0.00444078  0.69845376  0.67712766    -0.23500
H2160       H  0.96239753  0.70171175  0.69631143     0.17800
C2161       C  0.09018558  0.80525345  0.77275851    -0.27500
C2162       C  0.11267832  0.81392684  0.77959929     0.06100
C2163       C  0.11369672  0.83423798  0.79436008     0.25700
C2164       C  0.09269363  0.84544194  0.80199134    -0.12000
C2165       C  0.07019347  0.83645053  0.79553488    -0.25900
C2166       C  0.06920674  0.81601118  0.78089655     0.36500
C2167       C  0.13480898  0.80126696  0.77189393     0.06100
F2168       F  0.13493791  0.84288227  0.80210914    -0.19700
H2169       H  0.09410019  0.86101988  0.81330501     0.15900
F2170       F  0.04804290  0.80642388  0.77407446    -0.23400
H2171       H  0.08876878  0.79003057  0.76098046     0.17700
C2172       C  0.13620317  0.77616868  0.77269476     0.25700
C2173       C  0.15724928  0.76443362  0.76627232    -0.12000
C2174       C  0.17765140  0.77730605  0.75927511    -0.26000
C2175       C  0.17618688  0.80243638  0.75817897     0.36600
C2176       C  0.15491666  0.81415891  0.76415376    -0.27600
F2177       F  0.11759497  0.76288385  0.78073730    -0.19800
H2178       H  0.15767851  0.74513388  0.76742677     0.15900
F2179       F  0.19544302  0.81585416  0.75214731    -0.23500
H2180       H  0.15427934  0.83344152  0.76291930     0.17800
C2181       C  0.91751444  0.78604016  0.76307279    -0.27500
C2182       C  0.91719094  0.80643494  0.77764514     0.06100
C2183       C  0.89507821  0.81630827  0.78445667     0.25700
C2184       C  0.87382361  0.80592110  0.77685195    -0.12000
C2185       C  0.87425114  0.78515857  0.76303416    -0.25900
C2186       C  0.89620120  0.77520943  0.75612841     0.36500
C2187       C  0.93983930  0.81743960  0.78558850     0.06100
F2188       F  0.89396619  0.83529746  0.79941346    -0.19700
H2189       H  0.85698116  0.81335573  0.78284458     0.15900
F2190       F  0.89697642  0.75499312  0.74281989    -0.23400
H2191       H  0.93427689  0.77839036  0.75719281     0.17700
C2192       C  0.95872608  0.80342001  0.79456699     0.25700
C2193       C  0.98008657  0.81418562  0.80153745    -0.12000
C2194       C  0.98285107  0.83905330  0.80002820    -0.26000
C2195       C  0.96387894  0.85306465  0.79134052     0.36600
C2196       C  0.94270728  0.84228622  0.78402383    -0.27600
F2197       F  0.95647300  0.77939369  0.79689628    -0.19800
H2198       H  0.99449950  0.80307397  0.80817411     0.15900
F2199       F  0.96615812  0.87705347  0.78876245    -0.23500
H2200       H  0.92867365  0.85339213  0.77662301     0.17800
C2201       C  0.04467562  0.26136110  0.47674384    -0.27500
C2202       C  0.02472522  0.27031219  0.48905541     0.06100
C2203       C  0.00564256  0.28004031  0.47593291     0.25700
C2204       C  0.00650968  0.28066640  0.45100661    -0.12000
C2205       C  0.02654623  0.27197451  0.43862713    -0.25900
C2206       C  0.04567810  0.26222064  0.45177194     0.36500
C2207       C  0.02466801  0.27111403  0.51551853     0.06100
F2208       F  0.98661180  0.28993580  0.48722399    -0.19700
H2209       H  0.99164259  0.28850213  0.44138266     0.15900
F2210       F  0.06517297  0.25317107  0.44057267    -0.23400
H2211       H  0.05957141  0.25378510  0.48653361     0.17700
C2212       C  0.00502486  0.26290917  0.52889675     0.25700
C2213       C  0.00473509  0.26544119  0.55374582    -0.12000
C2214       C  0.02416208  0.27578499  0.56573566    -0.26000
C2215       C  0.04397241  0.28360158  0.55232108     0.36600
C2216       C  0.04414896  0.28123374  0.52750442    -0.27600
F2217       F  0.98632885  0.25204468  0.51801574    -0.19800
H2218       H  0.98946820  0.25887213  0.56365277     0.15900
F2219       F  0.06296290  0.29411146  0.56303931    -0.23500
H2220       H  0.05935787  0.28785153  0.51753372     0.17800
C2221       C  0.09286889  0.26511566  0.67500401    -0.27500
C2222       C  0.11327817  0.27438926  0.66373212     0.06100
C2223       C  0.11097743  0.28550700  0.64131650     0.25700
C2224       C  0.08875042  0.28680959  0.63017700    -0.12000
C2225       C  0.06837199  0.27726948  0.64124200    -0.25900
C2226       C  0.07054380  0.26659514  0.66395335     0.36500
C2227       C  0.13702920  0.27137392  0.67488259     0.06100
F2228       F  0.13021620  0.29524937  0.63024496    -0.19700
H2229       H  0.08748514  0.29533690  0.61281949     0.15900
F2230       F  0.05138604  0.25666690  0.67502855    -0.23400
H2231       H  0.09433753  0.25612524  0.69211135     0.17700
C2232       C  0.14086991  0.27753659  0.69887692     0.25700
C2233       C  0.16290088  0.27290790  0.70963277    -0.12000
C2234       C  0.18157622  0.26230270  0.69660940    -0.26000
C2235       C  0.17799702  0.25709244  0.67226818     0.36600
C2236       C  0.15584862  0.26142323  0.66164717    -0.27600
F2237       F  0.12333953  0.28807525  0.71188568    -0.19800
H2238       H  0.16528454  0.27744816  0.72827712     0.15900
F2239       F  0.19543302  0.24675893  0.65897270    -0.23500
H2240       H  0.15317669  0.25633628  0.64318523     0.17800
C2241       C  0.89641634  0.25868159  0.66953798    -0.27500
C2242       C  0.91479183  0.27099567  0.68118836     0.06100
C2243       C  0.91119408  0.27905727  0.70471177     0.25700
C2244       C  0.88960814  0.27443753  0.71636598    -0.12000
C2245       C  0.87132217  0.26194876  0.70465256    -0.25900
C2246       C  0.87492262  0.25410645  0.68110420     0.36500
C2247       C  0.93771113  0.27449672  0.66860672     0.06100
F2248       F  0.92839861  0.29149752  0.71633320    -0.19700
H2249       H  0.88719127  0.28056375  0.73455080     0.15900
F2250       F  0.85819867  0.24085229  0.66967571    -0.23400
H2251       H  0.89899525  0.25192019  0.65160773     0.17700
C2252       C  0.95940784  0.26769752  0.67923809     0.25700
C2253       C  0.98066602  0.26933618  0.66633183    -0.12000
C2254       C  0.98063863  0.27717215  0.64242099    -0.26000
C2255       C  0.95885810  0.28395691  0.63181241     0.36600
C2256       C  0.93769424  0.28279839  0.64490913    -0.27600
F2257       F  0.95993338  0.25821271  0.70159040    -0.19800
H2258       H  0.99708342  0.26365609  0.67486570     0.15900
F2259       F  0.95788570  0.29169721  0.60882497    -0.23500
H2260       H  0.92112239  0.28805254  0.63638462     0.17800
C2261       C  0.04577751  0.00065208  0.83537146    -0.27500
C2262       C  0.02729534  0.98568487  0.82737299     0.06100
C2263       C  0.00796329  0.99594264  0.81496377     0.25700
C2264       C  0.00770684  0.02033778  0.80981955    -0.12000
C2265       C  0.02680337  0.03509981  0.81657181    -0.25900
C2266       C  0.04563796  0.02512591  0.82995254     0.36500
C2267       C  0.02916865  0.95926519  0.82964403     0.06100
F2268       F  0.99003001  0.98216269  0.80633224    -0.19700
H2269       H  0.99297549  0.02745355  0.79945844     0.15900
F2270       F  0.06391874  0.03894592  0.83770835    -0.23400
H2271       H  0.06063373  0.99326443  0.84535070     0.17700
C2272       C  0.04988097  0.94729427  0.82194962     0.25700
C2273       C  0.05002328  0.92245223  0.81973729    -0.12000
C2274       C  0.02946352  0.90898991  0.82478270    -0.26000
C2275       C  0.00929453  0.92081154  0.83418744     0.36600
C2276       C  0.00929064  0.94566533  0.83670040    -0.27600
F2277       F  0.06937570  0.95967868  0.81463389    -0.19800
H2278       H  0.06585592  0.91395514  0.81258654     0.15900
F2279       F  0.98925433  0.90856571  0.84018736    -0.23500
H2280       H  0.99331912  0.95442002  0.84322078     0.17800
C2281       C  0.15373280  0.13282232  0.75536666    -0.27500
C2282       C  0.13448321  0.14454268  0.76641338     0.06100
C2283       C  0.13653193  0.16901279  0.77142751     0.25700
C2284       C  0.15756795  0.18126068  0.76612449    -0.12000
C2285       C  0.17724406  0.16954314  0.75570247    -0.25900
C2286       C  0.17484049  0.14515718  0.74982281     0.36500
C2287       C  0.11248248  0.13123790  0.77307903     0.06100
F2288       F  0.11853722  0.18096794  0.78241804    -0.19700
H2289       H  0.15855108  0.19996156  0.77084476     0.15900
F2290       F  0.19284691  0.13307225  0.73900292    -0.23400
H2291       H  0.15239630  0.11404256  0.75102776     0.17700
C2292       C  0.08987570  0.13971380  0.76621541     0.25700
C2293       C  0.06923600  0.12764019  0.77324229    -0.12000
C2294       C  0.07046773  0.10666884  0.78716995    -0.26000
C2295       C  0.09317494  0.09815098  0.79406684     0.36600
C2296       C  0.11391665  0.11030346  0.78695036    -0.27600
F2297       F  0.08770330  0.15945254  0.75223398    -0.19800
H2298       H  0.05219414  0.13472244  0.76742163     0.15900
F2299       F  0.09544571  0.07835667  0.80793499    -0.23500
H2300       H  0.13115665  0.10358756  0.79264354     0.17800
C2301       C  0.91841754  0.16681096  0.76495837    -0.27500
C2302       C  0.91744612  0.14261074  0.77164895     0.06100
C2303       C  0.89500764  0.13151967  0.77381698     0.25700
C2304       C  0.87411145  0.14442406  0.76932003    -0.12000
C2305       C  0.87510612  0.16869475  0.76303619    -0.25900
C2306       C  0.89749545  0.17977852  0.76071245     0.36500
C2307       C  0.93983624  0.12930938  0.77680185     0.06100
F2308       F  0.89322483  0.10818850  0.78019312    -0.19700
H2309       H  0.85706557  0.13556208  0.77139212     0.15900
F2310       F  0.89918215  0.20308936  0.75420585    -0.23400
H2311       H  0.93542706  0.17586389  0.76348481     0.17700
C2312       C  0.95960560  0.13092883  0.76133940     0.25700
C2313       C  0.98099733  0.11936159  0.76703607    -0.12000
C2314       C  0.98289271  0.10543507  0.78785324    -0.26000
C2315       C  0.96296888  0.10319331  0.80295630     0.36600
C2316       C  0.94177700  0.11530865  0.79761720    -0.27600
F2317       F  0.95812109  0.14331457  0.74049546    -0.19800
H2318       H  0.99603014  0.12099394  0.75495482     0.15900
F2319       F  0.96424619  0.09003447  0.82333053    -0.23500
H2320       H  0.92699097  0.11408269  0.81003060     0.17800
C2321       C  0.35237428  0.04467521  0.29971073    -0.27500
C2322       C  0.36382686  0.06579051  0.29251703     0.06100
C2323       C  0.38803726  0.06469254  0.28587012     0.25700
C2324       C  0.40032139  0.04284712  0.28617824    -0.12000
C2325       C  0.38874746  0.02155398  0.29295945    -0.25900
C2326       C  0.36453121  0.02282051  0.29985035     0.36500
C2327       C  0.35007680  0.08853230  0.29076341     0.06100
F2328       F  0.39957866  0.08456954  0.27815097    -0.19700
H2329       H  0.41884167  0.04258052  0.28062132     0.15900
F2330       F  0.35244752  0.00301860  0.30685101    -0.23400
H2331       H  0.33381777  0.04508275  0.30515809     0.17700
C2332       C  0.32830173  0.08929599  0.27826132     0.25700
C2333       C  0.31606357  0.11085419  0.27533738    -0.12000
C2334       C  0.32518357  0.13223749  0.28470777    -0.26000
C2335       C  0.34649886  0.13139573  0.29803478     0.36600
C2336       C  0.35881175  0.10972195  0.30096717    -0.27600
F2337       F  0.31936644  0.06938105  0.26782909    -0.19800
H2338       H  0.29981027  0.11091913  0.26484300     0.15900
F2339       F  0.35535072  0.15142744  0.30831499    -0.23500
H2340       H  0.37525838  0.10948748  0.31114003     0.17800
C2341       C  0.32935406  0.86193104  0.29591578    -0.27500
C2342       C  0.35332224  0.86496241  0.28920058     0.06100
C2343       C  0.36573030  0.84548085  0.27932823     0.25700
C2344       C  0.35422374  0.82359410  0.27596589    -0.12000
C2345       C  0.33004579  0.82068421  0.28210772    -0.25900
C2346       C  0.31774700  0.84012685  0.29234542     0.36500
C2347       C  0.36505909  0.88859388  0.29187193     0.06100
F2348       F  0.38867957  0.84789415  0.27190424    -0.19700
H2349       H  0.36407550  0.80913462  0.26773919     0.15900
F2350       F  0.29450979  0.83814931  0.29896368    -0.23400
H2351       H  0.31953659  0.87656790  0.30386328     0.17700
C2352       C  0.35416858  0.90947706  0.28296948     0.25700
C2353       C  0.36575532  0.93151150  0.28468222    -0.12000
C2354       C  0.38861876  0.93312352  0.29481091    -0.26000
C2355       C  0.39933998  0.91230190  0.30415629     0.36600
C2356       C  0.38756364  0.89033465  0.30279394    -0.27600
F2357       F  0.33285432  0.90841695  0.27149698    -0.19800
H2358       H  0.35724253  0.94718278  0.27711587     0.15900
F2359       F  0.42118268  0.91312710  0.31464387    -0.23500
H2360       H  0.39613137  0.87458264  0.31012759     0.17800
C2361       C  0.24519163  0.06215584  0.13335017    -0.27500
C2362       C  0.25028399  0.06171280  0.15791505     0.06100
C2363       C  0.24961397  0.03979127  0.17017450     0.25700
C2364       C  0.24421209  0.01877646  0.15799419    -0.12000
C2365       C  0.23928019  0.01904761  0.13331267    -0.25900
C2366       C  0.23971663  0.04111038  0.12110444     0.36500
C2367       C  0.25561383  0.08418970  0.17079079     0.06100
F2368       F  0.25473245  0.03857823  0.19386233    -0.19700
H2369       H  0.24408038  0.00220070  0.16800963     0.15900
F2370       F  0.23521492  0.04246213  0.09731633    -0.23400
H2371       H  0.24526288  0.07891804  0.12364240     0.17700
C2372       C  0.27304682  0.10022191  0.16238668     0.25700
C2373       C  0.27726625  0.12171409  0.17440618    -0.12000
C2374       C  0.26434934  0.12750284  0.19513722    -0.26000
C2375       C  0.24716344  0.11111559  0.20370633     0.36600
C2376       C  0.24286393  0.08984532  0.19156554    -0.27600
F2377       F  0.28628255  0.09490062  0.14279557    -0.19800
H2378       H  0.29075087  0.13376454  0.16755437     0.15900
F2379       F  0.23387566  0.11583191  0.22343944    -0.23500
H2380       H  0.22916122  0.07791136  0.19820582     0.17800
C2381       C  0.24192728  0.88821977  0.13678862    -0.27500
C2382       C  0.25605549  0.88930788  0.15743517     0.06100
C2383       C  0.26344715  0.91159364  0.16605914     0.25700
C2384       C  0.25645972  0.93246721  0.15437770    -0.12000
C2385       C  0.24224578  0.93154050  0.13369714    -0.25900
C2386       C  0.23502199  0.90910901  0.12495330     0.36500
C2387       C  0.26226342  0.86717830  0.17034139     0.06100
F2388       F  0.27782733  0.91315525  0.18551557    -0.19700
H2389       H  0.26260759  0.94938449  0.16135205     0.15900
F2390       F  0.22101020  0.90726214  0.10526205    -0.23400
H2391       H  0.23591271  0.87114642  0.13005604     0.17700
C2392       C  0.25656139  0.86468695  0.19461482     0.25700
C2393       C  0.26131047  0.84335131  0.20648140    -0.12000
C2394       C  0.27148136  0.82383503  0.19435462    -0.26000
C2395       C  0.27759698  0.82653689  0.17004043     0.36600
C2396       C  0.27296075  0.84807077  0.15821271    -0.27600
F2397       F  0.24530064  0.88248072  0.20660120    -0.19800
H2398       H  0.25625690  0.84198785  0.22511452     0.15900
F2399       F  0.28752239  0.80836205  0.15748131    -0.23500
H2400       H  0.27748548  0.84978118  0.13946312     0.17800
C2401       C  0.66402651  0.06339326  0.72752414    -0.27500
C2402       C  0.68693837  0.06628785  0.71769460     0.06100
C2403       C  0.69742956  0.04713821  0.70535164     0.25700
C2404       C  0.68524232  0.02561361  0.70294151    -0.12000
C2405       C  0.66222623  0.02270282  0.71250841    -0.25900
C2406       C  0.65165464  0.04188151  0.72485713     0.36500
C2407       C  0.69999547  0.08911049  0.72043742     0.06100
F2408       F  0.71927388  0.04938917  0.69506946    -0.19700
H2409       H  0.69378185  0.01127378  0.69319608     0.15900
F2410       F  0.62966370  0.03975523  0.73483286    -0.23400
H2411       H  0.65579139  0.07773325  0.73752410     0.17700
C2412       C  0.68893309  0.11113814  0.71549478     0.25700
C2413       C  0.70173285  0.13242399  0.71784655    -0.12000
C2414       C  0.72579402  0.13217169  0.72515399    -0.26000
C2415       C  0.73677409  0.11002413  0.73004624     0.36600
C2416       C  0.72393344  0.08885313  0.72781008    -0.27600
F2417       F  0.66587769  0.11208199  0.70805547    -0.19800
H2418       H  0.69271738  0.14913503  0.71406183     0.15900
F2419       F  0.75967895  0.10870509  0.73787255    -0.23500
H2420       H  0.73267641  0.07215284  0.73224045     0.17800
C2421       C  0.70393655  0.91417935  0.70445098    -0.27500
C2422       C  0.69212850  0.89246724  0.70035162     0.06100
C2423       C  0.66792243  0.89303193  0.69360588     0.25700
C2424       C  0.65535673  0.91458143  0.69318559    -0.12000
C2425       C  0.66667272  0.93613594  0.69905408    -0.25900
C2426       C  0.69150280  0.93585950  0.70349092     0.36500
C2427       C  0.70432666  0.86934802  0.70534285     0.06100
F2428       F  0.65620334  0.87263028  0.68796677    -0.19700
H2429       H  0.63650923  0.91423863  0.68888390     0.15900
F2430       F  0.70366236  0.95627201  0.70812762    -0.23400
H2431       H  0.72257151  0.91433549  0.70959479     0.17700
C2432       C  0.72784900  0.86480825  0.69765943     0.25700
C2433       C  0.73924005  0.84333868  0.70380239    -0.12000
C2434       C  0.72731967  0.82587710  0.71739308    -0.26000
C2435       C  0.70381296  0.83044840  0.72503450     0.36600
C2436       C  0.69259739  0.85196474  0.71917699    -0.27600
F2437       F  0.73970448  0.88091522  0.68392969    -0.19800
H2438       H  0.75733577  0.84024149  0.69770166     0.15900
F2439       F  0.69195781  0.81457061  0.73904725    -0.23500
H2440       H  0.67480952  0.85527520  0.72601897     0.17800
C2441       C  0.81440880  0.04584626  0.83663622    -0.27500
C2442       C  0.81950000  0.06704302  0.84882368     0.06100
C2443       C  0.83018165  0.06584759  0.87148475     0.25700
C2444       C  0.83504231  0.04363092  0.88193729    -0.12000
C2445       C  0.82937501  0.02227190  0.86993916    -0.25900
C2446       C  0.81940520  0.02372749  0.84687423     0.36500
C2447       C  0.81313763  0.09005762  0.83753448     0.06100
F2448       F  0.83606585  0.08608341  0.88337953    -0.19700
H2449       H  0.84297174  0.04321040  0.89957905     0.15900
F2450       F  0.81385476  0.00389766  0.83423741    -0.23400
H2451       H  0.80603971  0.04640731  0.81919076     0.17700
C2452       C  0.82001091  0.09463972  0.81387894     0.25700
C2453       C  0.81180615  0.11491918  0.80212017    -0.12000
C2454       C  0.79667214  0.13135815  0.81362292    -0.26000
C2455       C  0.79023289  0.12709537  0.83763210     0.36600
C2456       C  0.79844604  0.10654604  0.84942940    -0.27600
F2457       F  0.83468153  0.07940441  0.80203833    -0.19800
H2458       H  0.81752901  0.11769535  0.78384439     0.15900
F2459       F  0.77569364  0.14236429  0.84957174    -0.23500
H2460       H  0.79274897  0.10312890  0.86761829     0.17800
C2461       C  0.79927988  0.91425017  0.83854367    -0.27500
C2462       C  0.80513716  0.89200104  0.84850098     0.06100
C2463       C  0.81829762  0.89114298  0.86986047     0.25700
C2464       C  0.82575927  0.91228847  0.88075916    -0.12000
C2465       C  0.82025111  0.93464382  0.87057756    -0.25900
C2466       C  0.80666453  0.93535805  0.84938001     0.36500
C2467       C  0.79904876  0.86999806  0.83531805     0.06100
F2468       F  0.82475255  0.86990423  0.87968199    -0.19700
H2469       H  0.83616311  0.91111111  0.89703128     0.15900
F2470       F  0.80013937  0.95635819  0.83914686    -0.23400
H2471       H  0.78901852  0.91525820  0.82215903     0.17700
C2472       C  0.78675374  0.85100538  0.84619884     0.25700
C2473       C  0.78161601  0.83034287  0.83318082    -0.12000
C2474       C  0.78862966  0.82823185  0.80909939    -0.26000
C2475       C  0.80076026  0.84755654  0.79827819     0.36600
C2476       C  0.80578104  0.86809706  0.81129535    -0.27600
F2477       F  0.77938607  0.85255846  0.86924938    -0.19800
H2478       H  0.77224085  0.81593750  0.84206432     0.15900
F2479       F  0.80827738  0.84667145  0.77523443    -0.23500
H2480       H  0.81539074  0.88250789  0.80264327     0.17800
C2481       C  0.33643206  0.29967714  0.06775324    -0.27500
C2482       C  0.32697220  0.31155024  0.08774295     0.06100
C2483       C  0.32074591  0.33579887  0.08552851     0.25700
C2484       C  0.32348567  0.34766182  0.06369720    -0.12000
C2485       C  0.33220672  0.33562509  0.04348364    -0.25900
C2486       C  0.33897502  0.31150968  0.04580456     0.36500
C2487       C  0.32271351  0.29845089  0.11051883     0.06100
F2488       F  0.31102504  0.34781849  0.10418035    -0.19700
H2489       H  0.31810584  0.36620782  0.06247091     0.15900
F2490       F  0.34840437  0.29945007  0.02703533    -0.23400
H2491       H  0.34182984  0.28114841  0.06913174     0.17700
C2492       C  0.31065310  0.27644285  0.11058899     0.25700
C2493       C  0.30540000  0.26491586  0.13213619    -0.12000
C2494       C  0.31167791  0.27517806  0.15414378    -0.26000
C2495       C  0.32412539  0.29703298  0.15408371     0.36600
C2496       C  0.32970584  0.30838297  0.13246351    -0.27600
F2497       F  0.30285142  0.26660442  0.08989029    -0.19800
H2498       H  0.29557316  0.24828901  0.13157266     0.15900
F2499       F  0.33094387  0.30747815  0.17483999    -0.23500
H2500       H  0.33934770  0.32511938  0.13287766     0.17800
C2501       C  0.34277638  0.33077923  0.91339638    -0.27500
C2502       C  0.32474391  0.31361391  0.91048458     0.06100
C2503       C  0.31035771  0.30759632  0.93025078     0.25700
C2504       C  0.31391437  0.31858938  0.95236439    -0.12000
C2505       C  0.33160189  0.33604144  0.95513737    -0.25900
C2506       C  0.34617101  0.34196069  0.93550909     0.36500
C2507       C  0.32091654  0.30182141  0.88701610     0.06100
F2508       F  0.29229679  0.29164103  0.92796405    -0.19700
H2509       H  0.30232600  0.31398719  0.96717782     0.15900
F2510       F  0.36398822  0.35818465  0.93787510    -0.23400
H2511       H  0.35433321  0.33539800  0.89857045     0.17700
C2512       C  0.31733306  0.31517711  0.86597548     0.25700
C2513       C  0.31177572  0.30365966  0.84445030    -0.12000
C2514       C  0.30990045  0.27857748  0.84337182    -0.26000
C2515       C  0.31453728  0.26529799  0.86437978     0.36600
C2516       C  0.31987522  0.27684616  0.88581969    -0.27600
F2517       F  0.31824185  0.33938952  0.86641634    -0.19800
H2518       H  0.30845207  0.31448801  0.82872837     0.15900
F2519       F  0.31380369  0.24108516  0.86445294    -0.23500
H2520       H  0.32306280  0.26618079  0.90169080     0.17800
C2521       C  0.21743503  0.20400929  0.10994060    -0.27500
C2522       C  0.19243344  0.20324329  0.11000359     0.06100
C2523       C  0.18004920  0.20717752  0.13148382     0.25700
C2524       C  0.19265084  0.21231295  0.15243067    -0.12000
C2525       C  0.21776957  0.21320600  0.15234127    -0.25900
C2526       C  0.23004108  0.20882780  0.13079204     0.36500
C2527       C  0.17979968  0.19792552  0.08748559     0.06100
F2528       F  0.15583580  0.20634551  0.13215060    -0.19700
H2529       H  0.18274690  0.21521108  0.16879745     0.15900
F2530       F  0.25425475  0.20925187  0.12968258    -0.23400
H2531       H  0.22729523  0.20056052  0.09365036     0.17700
C2532       C  0.18531254  0.21070518  0.06655058     0.25700
C2533       C  0.17545002  0.20397726  0.04473383    -0.12000
C2534       C  0.15970437  0.18456846  0.04338944    -0.26000
C2535       C  0.15348338  0.17229286  0.06451691     0.36600
C2536       C  0.16357930  0.17890957  0.08635198    -0.27600
F2537       F  0.20028372  0.22972667  0.06722099    -0.19800
H2538       H  0.18003893  0.21411152  0.02887020     0.15900
F2539       F  0.13835859  0.15339112  0.06400443    -0.23500
H2540       H  0.15931712  0.16870010  0.10226061     0.17800
C2541       C  0.19790854  0.19294210  0.93131006    -0.27500
C2542       C  0.18377989  0.20107055  0.91212163     0.06100
C2543       C  0.15881901  0.20184791  0.91495209     0.25700
C2544       C  0.14834660  0.19437011  0.93630176    -0.12000
C2545       C  0.16245305  0.18650335  0.95550485    -0.25900
C2546       C  0.18741778  0.18602202  0.95293503     0.36500
C2547       C  0.19504560  0.20805841  0.88909160     0.06100
F2548       F  0.14448839  0.21036218  0.89731060    -0.19700
H2549       H  0.12909212  0.19521993  0.93798150     0.15900
F2550       F  0.20162601  0.17819979  0.97099786    -0.23400
H2551       H  0.21710633  0.19156832  0.92946743     0.17700
C2552       C  0.21607189  0.22183636  0.88854072     0.25700
C2553       C  0.22729242  0.22683538  0.86680482    -0.12000
C2554       C  0.21740327  0.21883755  0.84526878    -0.26000
C2555       C  0.19593211  0.20600242  0.84560603     0.36600
C2556       C  0.18508935  0.20035438  0.86735826    -0.27600
F2557       F  0.22576866  0.23053883  0.90894865    -0.19800
H2558       H  0.24382266  0.23686476  0.86676460     0.15900
F2559       F  0.18625245  0.19766258  0.82502077    -0.23500
H2560       H  0.16926383  0.18928725  0.86719500     0.17800
C2561       C  0.75540165  0.66870257  0.11665919    -0.27500
C2562       C  0.73756603  0.65127977  0.11416056     0.06100
C2563       C  0.72393600  0.64493996  0.13446784     0.25700
C2564       C  0.72851787  0.65545718  0.15668944    -0.12000
C2565       C  0.74613322  0.67304285  0.15890826    -0.25900
C2566       C  0.75941651  0.67972601  0.13861878     0.36500
C2567       C  0.73411041  0.63915120  0.09070173     0.06100
F2568       F  0.70584967  0.62894367  0.13280033    -0.19700
H2569       H  0.71796841  0.65023141  0.17206290     0.15900
F2570       F  0.77696493  0.69634416  0.14020610    -0.23400
H2571       H  0.76669756  0.67349591  0.10170109     0.17700
C2572       C  0.73489678  0.65189600  0.06892018     0.25700
C2573       C  0.73278536  0.63991728  0.04709231    -0.12000
C2574       C  0.72975017  0.61500745  0.04635854    -0.26000
C2575       C  0.72850739  0.60237726  0.06820823     0.36600
C2576       C  0.73090957  0.61431436  0.08994162    -0.27600
F2577       F  0.73750778  0.67598075  0.06861622    -0.19800
H2578       H  0.73375470  0.65023058  0.03071937     0.15900
F2579       F  0.72525217  0.57838111  0.06882054    -0.23500
H2580       H  0.73081304  0.60388177  0.10626107     0.17800
C2581       C  0.74430956  0.64262579  0.87093610    -0.27500
C2582       C  0.73524919  0.65470884  0.89089167     0.06100
C2583       C  0.72992775  0.67919447  0.88880881     0.25700
C2584       C  0.73379350  0.69130070  0.86717555    -0.12000
C2585       C  0.74314531  0.67927650  0.84722133    -0.25900
C2586       C  0.74838503  0.65468985  0.84939987     0.36500
C2587       C  0.73266848  0.64187335  0.91405754     0.06100
F2588       F  0.72090123  0.69138581  0.90768437    -0.19700
H2589       H  0.72960689  0.71015686  0.86610037     0.15900
F2590       F  0.75854971  0.64243793  0.83112700    -0.23400
H2591       H  0.74899885  0.62389821  0.87227627     0.17700
C2592       C  0.71962009  0.62047731  0.91571575     0.25700
C2593       C  0.71845258  0.60792030  0.93741123    -0.12000
C2594       C  0.73016708  0.61649278  0.95787270    -0.26000
C2595       C  0.74321046  0.63790376  0.95615600     0.36600
C2596       C  0.74437574  0.65042079  0.93448215    -0.27600
F2597       F  0.70778685  0.61187789  0.89641697    -0.19800
H2598       H  0.70822388  0.59154630  0.93826857     0.15900
F2599       F  0.75572079  0.64622267  0.97514081    -0.23500
H2600       H  0.75497499  0.66655101  0.93347565     0.17800
C2601       C  0.86321729  0.73338130  0.07002144    -0.27500
C2602       C  0.86919547  0.74589816  0.09078213     0.06100
C2603       C  0.88640932  0.76402180  0.08980641     0.25700
C2604       C  0.89758022  0.76946241  0.06818727    -0.12000
C2605       C  0.89157619  0.75703274  0.04726891    -0.25900
C2606       C  0.87428154  0.73884779  0.04837273     0.36500
C2607       C  0.85685726  0.74039477  0.11325200     0.06100
F2608       F  0.89189134  0.77684467  0.10959905    -0.19700
H2609       H  0.91069565  0.78364630  0.06772916     0.15900
F2610       F  0.86850116  0.72590928  0.02875669    -0.23400
H2611       H  0.85002275  0.71926806  0.07065954     0.17700
C2612       C  0.83209892  0.74343050  0.11491660     0.25700
C2613       C  0.82046539  0.73885156  0.13639200    -0.12000
C2614       C  0.83329246  0.73098578  0.15658880    -0.26000
C2615       C  0.85812072  0.72725949  0.15459204     0.36600
C2616       C  0.86977302  0.73217304  0.13308156    -0.27600
F2617       F  0.81929031  0.75153325  0.09594636    -0.19800
H2618       H  0.80137158  0.74183166  0.13719792     0.15900
F2619       F  0.87126222  0.71929574  0.17338404    -0.23500
H2620       H  0.88890262  0.72954485  0.13184344     0.17800
C2621       C  0.85636006  0.75688492  0.93533967    -0.27500
C2622       C  0.86990810  0.74918084  0.91571638     0.06100
C2623       C  0.89483517  0.74733411  0.91794104     0.25700
C2624       C  0.90586985  0.75250929  0.93969421    -0.12000
C2625       C  0.89226259  0.75972052  0.95949634    -0.25900
C2626       C  0.86739065  0.76222572  0.95703534     0.36500
C2627       C  0.85787804  0.74393952  0.89284366     0.06100
F2628       F  0.90844026  0.74005355  0.89924936    -0.19700
H2629       H  0.92505258  0.75048482  0.94116917     0.15900
F2630       F  0.85383039  0.77052598  0.97533056    -0.23400
H2631       H  0.83720877  0.75911805  0.93371643     0.17700
C2632       C  0.83824148  0.72831095  0.89203443     0.25700
C2633       C  0.82543959  0.72543892  0.87079733    -0.12000
C2634       C  0.83266488  0.73742215  0.85001532    -0.26000
C2635       C  0.85305034  0.75194262  0.85045712     0.36600
C2636       C  0.86535115  0.75544042  0.87182426    -0.27600
F2637       F  0.83169857  0.71564973  0.91169547    -0.19800
H2638       H  0.81008294  0.71370524  0.87047102     0.15900
F2639       F  0.86049697  0.76341343  0.83038157    -0.23500
H2640       H  0.88039796  0.76755964  0.87208481     0.17800
C2641       C  0.49758536  0.98645936  0.72753979    -0.27500
C2642       C  0.51072965  0.97217406  0.71160422     0.06100
C2643       C  0.49818628  0.95770497  0.69532088     0.25700
C2644       C  0.47317583  0.95792718  0.69486060    -0.12000
C2645       C  0.46020362  0.97297026  0.71012750    -0.25900
C2646       C  0.47261941  0.98712865  0.72662944     0.36500
C2647       C  0.53735742  0.97311537  0.71154383     0.06100
F2648       F  0.51004436  0.94413904  0.67912898    -0.19700
H2649       H  0.46392372  0.94692713  0.68196328     0.15900
F2650       F  0.46059998  0.00129225  0.74217503    -0.23400
H2651       H  0.50668489  0.99726417  0.74069397     0.17700
C2652       C  0.54939073  0.99515217  0.71221283     0.25700
C2653       C  0.57432829  0.99601184  0.71143752    -0.12000
C2654       C  0.58801914  0.97499352  0.70992798    -0.26000
C2655       C  0.57597693  0.95286562  0.70972925     0.36600
C2656       C  0.55097575  0.95203663  0.71052559    -0.27600
F2657       F  0.53705688  0.01601767  0.71283561    -0.19800
H2658       H  0.58288305  0.01332950  0.71165451     0.15900
F2659       F  0.58820829  0.93194277  0.70893662    -0.23500
H2660       H  0.54223631  0.93480736  0.71051767     0.17800
C2661       C  0.34980774  0.04392609  0.71375155    -0.27500
C2662       C  0.36296824  0.06505369  0.71064252     0.06100
C2663       C  0.38755373  0.06331794  0.70572973     0.25700
C2664       C  0.39868053  0.04098167  0.70445432    -0.12000
C2665       C  0.38558578  0.01980086  0.70774741    -0.25900
C2666       C  0.36084185  0.02155371  0.71212963     0.36500
C2667       C  0.35109293  0.08872365  0.71317326     0.06100
F2668       F  0.40081693  0.08320407  0.70176891    -0.19700
H2669       H  0.41764775  0.04032021  0.70074254     0.15900
F2670       F  0.34728819  0.00176547  0.71549804    -0.23400
H2671       H  0.33094576  0.04471139  0.71794584     0.17700
C2672       C  0.32880110  0.09335943  0.70244813     0.25700
C2673       C  0.31731749  0.11526094  0.70597307    -0.12000
C2674       C  0.32804599  0.13321773  0.71970898    -0.26000
C2675       C  0.35056920  0.12883891  0.72999722     0.36600
C2676       C  0.36178526  0.10673031  0.72694748    -0.27600
F2677       F  0.31825903  0.07688483  0.68821855    -0.19800
H2678       H  0.30004741  0.11827166  0.69777153     0.15900
F2679       F  0.36130277  0.14551118  0.74387540    -0.23500
H2680       H  0.37866685  0.10351537  0.73583270     0.17800
C2681       C  0.35043333  0.90675574  0.69052527    -0.27500
C2682       C  0.35877672  0.88739821  0.70435125     0.06100
C2683       C  0.37923289  0.89065554  0.71858814     0.25700
C2684       C  0.39148973  0.91229487  0.71828192    -0.12000
C2685       C  0.38330458  0.93155567  0.70446739    -0.25900
C2686       C  0.36238946  0.92878687  0.69081082     0.36500
C2687       C  0.34618748  0.86395273  0.70461283     0.06100
F2688       F  0.38700758  0.87313390  0.73350014    -0.19700
H2689       H  0.40720271  0.91417763  0.72940058     0.15900
F2690       F  0.35389528  0.94709845  0.67729997    -0.23400
H2691       H  0.33478786  0.90477675  0.67935128     0.17700
C2692       C  0.32133814  0.86247368  0.70794693     0.25700
C2693       C  0.31043835  0.84029259  0.71180465    -0.12000
C2694       C  0.32400060  0.81906450  0.71254316    -0.26000
C2695       C  0.34867993  0.82051406  0.70766373     0.36600
C2696       C  0.35946331  0.84265531  0.70355794    -0.27600
F2697       F  0.30773128  0.88251416  0.70898853    -0.19800
H2698       H  0.29140801  0.83993649  0.71520729     0.15900
F2699       F  0.36270157  0.80072608  0.70756711    -0.23500
H2700       H  0.37851924  0.84321313  0.70029007     0.17800
C2701       C  0.21916970  0.99495957  0.97223597    -0.27500
C2702       C  0.21231150  0.97365120  0.98356512     0.06100
C2703       C  0.20766057  0.95342001  0.96943891     0.25700
C2704       C  0.21177272  0.95411659  0.94480946    -0.12000
C2705       C  0.22022630  0.97503041  0.93374075    -0.25900
C2706       C  0.22308395  0.99574530  0.94764739     0.36500
C2707       C  0.21266186  0.97238536  0.01008174     0.06100
F2708       F  0.19967514  0.93281313  0.97944208    -0.19700
H2709       H  0.20893940  0.93803969  0.93450147     0.15900
F2710       F  0.23129235  0.01640215  0.93794890    -0.23400
H2711       H  0.22294917  0.01078021  0.98262874     0.17700
C2712       C  0.22465319  0.95363312  0.02185099     0.25700
C2713       C  0.22772124  0.95414520  0.04655793    -0.12000
C2714       C  0.21962846  0.97362893  0.06007835    -0.26000
C2715       C  0.20737633  0.99227564  0.04845353     0.36600
C2716       C  0.20371066  0.99146503  0.02373496    -0.27600
F2717       F  0.23501983  0.93562603  0.00940844    -0.19800
H2718       H  0.23754717  0.93971386  0.05496129     0.15900
F2719       F  0.19909581  0.01134313  0.06086739    -0.23500
H2720       H  0.19442499  0.00612998  0.01512768     0.17800
C2721       C  0.27060506  0.04042083  0.83323492    -0.27500
C2722       C  0.25799491  0.06121767  0.83919718     0.06100
C2723       C  0.23948684  0.05991881  0.85611304     0.25700
C2724       C  0.23411989  0.03824424  0.86725656    -0.12000
C2725       C  0.24687768  0.01743797  0.86151411    -0.25900
C2726       C  0.26518906  0.01869600  0.84428462     0.36500
C2727       C  0.26362707  0.08402311  0.82709943     0.06100
F2728       F  0.22617450  0.07947461  0.86138283    -0.19700
H2729       H  0.21976483  0.03769017  0.88022282     0.15900
F2730       F  0.27840747  0.99918536  0.83863829    -0.23400
H2731       H  0.28488802  0.04110110  0.82019191     0.17700
C2732       C  0.26889220  0.10467545  0.84025595     0.25700
C2733       C  0.27225003  0.12654421  0.82855204    -0.12000
C2734       C  0.27052590  0.12815271  0.80351566    -0.26000
C2735       C  0.26669842  0.10699106  0.79036288     0.36600
C2736       C  0.26320305  0.08526783  0.80211839    -0.27600
F2737       F  0.27078378  0.10365340  0.86441931    -0.19800
H2738       H  0.27562791  0.14230530  0.83916582     0.15900
F2739       F  0.26611410  0.10714856  0.76610863    -0.23500
H2740       H  0.25955323  0.06943610  0.79167804     0.17800
C2741       C  0.27391566  0.84460550  0.83899105    -0.27500
C2742       C  0.26019782  0.86302001  0.82905536     0.06100
C2743       C  0.24865325  0.85961639  0.80712149     0.25700
C2744       C  0.25084605  0.83792979  0.79523252    -0.12000
C2745       C  0.26473206  0.81934264  0.80498070    -0.25900
C2746       C  0.27626035  0.82290144  0.82709697     0.36500
C2747       C  0.25737868  0.88565357  0.84181901     0.06100
F2748       F  0.23484948  0.87713000  0.79749770    -0.19700
H2749       H  0.24155512  0.83570512  0.77841739     0.15900
F2750       F  0.29009291  0.80565856  0.83713718    -0.23400
H2751       H  0.28293272  0.84714129  0.85591565     0.17700
C2752       C  0.24575423  0.88628460  0.86397350     0.25700
C2753       C  0.24108363  0.90814481  0.87490164    -0.12000
C2754       C  0.24814608  0.92967214  0.86396082    -0.26000
C2755       C  0.26071483  0.92874617  0.84210785     0.36600
C2756       C  0.26511645  0.90688624  0.83115380    -0.27600
F2757       F  0.23808767  0.86581636  0.87451089    -0.19800
H2758       H  0.23152926  0.90818134  0.89172544     0.15900
F2759       F  0.26870663  0.94882924  0.83112472    -0.23500
H2760       H  0.27436248  0.90650251  0.81414647     0.17800
C2761       C  0.55530508  0.99128145  0.27930050    -0.27500
C2762       C  0.54133836  0.97183040  0.28673677     0.06100
C2763       C  0.55282334  0.95116931  0.29541733     0.25700
C2764       C  0.57766778  0.95060593  0.29771827    -0.12000
C2765       C  0.59152638  0.97058083  0.29149236    -0.25900
C2766       C  0.58012780  0.99074244  0.28163873     0.36500
C2767       C  0.51489167  0.97363410  0.28630851     0.06100
F2768       F  0.54002973  0.93191911  0.30272928    -0.19700
H2769       H  0.58598199  0.93476811  0.30515802     0.15900
F2770       F  0.59291675  0.00990183  0.27409819    -0.23400
H2771       H  0.54692339  0.00706661  0.27182892     0.17700
C2772       C  0.50323444  0.99373405  0.29590620     0.25700
C2773       C  0.47830332  0.99497333  0.29626927    -0.12000
C2774       C  0.46448969  0.97605275  0.28751018    -0.26000
C2775       C  0.47615973  0.95610791  0.27752763     0.36600
C2776       C  0.50108731  0.95504693  0.27684260    -0.27600
F2777       F  0.51591806  0.01174749  0.30590218    -0.19800
H2778       H  0.46979927  0.01041173  0.30420451     0.15900
F2779       F  0.46353987  0.93768410  0.26820920    -0.23500
H2780       H  0.50962955  0.93962098  0.26892515     0.17800
C2781       C  0.72329945  0.08749339  0.31048134    -0.27500
C2782       C  0.70012535  0.08307976  0.30202866     0.06100
C2783       C  0.68778607  0.10154151  0.29013225     0.25700
C2784       C  0.69885505  0.12354726  0.28591960    -0.12000
C2785       C  0.72251643  0.12754549  0.29322032    -0.25900
C2786       C  0.73442139  0.10947237  0.30619106     0.36500
C2787       C  0.68922414  0.05901806  0.30469474     0.06100
F2788       F  0.66551112  0.09786215  0.28133805    -0.19700
H2789       H  0.68926874  0.13707253  0.27588398     0.15900
F2790       F  0.75685776  0.11296613  0.31464209    -0.23400
H2791       H  0.73292673  0.07375352  0.32017739     0.17700
C2792       C  0.70140103  0.03838995  0.29701868     0.25700
C2793       C  0.69008281  0.01610632  0.29755261    -0.12000
C2794       C  0.66641547  0.01399680  0.30558836    -0.26000
C2795       C  0.65468603  0.03444051  0.31434531     0.36600
C2796       C  0.66600764  0.05666793  0.31385536    -0.27600
F2797       F  0.72376751  0.03994436  0.28780250    -0.19800
H2798       H  0.69949415  0.00066845  0.29070346     0.15900
F2799       F  0.63223955  0.03297687  0.32339337    -0.23500
H2800       H  0.65649377  0.07218290  0.32038384     0.17800
C2801       C  0.69994183  0.90070704  0.31356492    -0.27500
C2802       C  0.68955788  0.88093001  0.30222030     0.06100
C2803       C  0.66686460  0.88345941  0.29179279     0.25700
C2804       C  0.65518421  0.90547010  0.29218824    -0.12000
C2805       C  0.66589951  0.92554084  0.30273202    -0.25900
C2806       C  0.68837029  0.92286847  0.31370862     0.36500
C2807       C  0.70306184  0.85826081  0.29978236     0.06100
F2808       F  0.65644460  0.86499172  0.28013814    -0.19700
H2809       H  0.63794898  0.90691598  0.28352632     0.15900
F2810       F  0.69917516  0.94154308  0.32463859    -0.23400
H2811       H  0.71723907  0.89905465  0.32206879     0.17700
C2812       C  0.72658547  0.85841865  0.29103348     0.25700
C2813       C  0.73861625  0.83700724  0.28681645    -0.12000
C2814       C  0.72746382  0.81490867  0.29103482    -0.26000
C2815       C  0.70404905  0.81476937  0.30035543     0.36600
C2816       C  0.69209488  0.83626170  0.30475727    -0.27600
F2817       F  0.73755577  0.87926876  0.28534648    -0.19800
H2818       H  0.75645959  0.83781340  0.27939229     0.15900
F2819       F  0.69253761  0.79395983  0.30502950    -0.23500
H2820       H  0.67408149  0.83571842  0.31178744     0.17800
C2821       C  0.84096176  0.99484201  0.98211043    -0.27500
C2822       C  0.85158312  0.97482613  0.99283758     0.06100
C2823       C  0.85958794  0.95591360  0.97843329     0.25700
C2824       C  0.85635483  0.95685853  0.95370738    -0.12000
C2825       C  0.84533655  0.97674634  0.94305744    -0.25900
C2826       C  0.83781398  0.99585569  0.95747445     0.36500
C2827       C  0.85156427  0.97281382  0.01910056     0.06100
F2828       F  0.87020032  0.93643706  0.98831847    -0.19700
H2829       H  0.86225845  0.94196792  0.94289850     0.15900
F2830       F  0.82598029  0.01483483  0.94801582    -0.23400
H2831       H  0.83400646  0.00925342  0.99294796     0.17700
C2832       C  0.85903446  0.99192278  0.03346970     0.25700
C2833       C  0.85553673  0.99106055  0.05812875    -0.12000
C2834       C  0.84469470  0.97111809  0.06883441    -0.26000
C2835       C  0.83799156  0.95166105  0.05448979     0.36600
C2836       C  0.84139604  0.95260454  0.02985903    -0.27600
F2837       F  0.86927013  0.01158624  0.02361652    -0.19800
H2838       H  0.86096304  0.00619190  0.06882007     0.15900
F2839       F  0.82674465  0.93236448  0.06393435    -0.23500
H2840       H  0.83495167  0.93797584  0.01903459     0.17800
C2841       C  0.78994257  0.08017674  0.19775543    -0.27500
C2842       C  0.80139636  0.08157544  0.17538834     0.06100
C2843       C  0.80472641  0.10430187  0.16492735     0.25700
C2844       C  0.79733600  0.12488029  0.17690879    -0.12000
C2845       C  0.78704191  0.12338084  0.19972069    -0.25900
C2846       C  0.78323145  0.10081220  0.21001051     0.36500
C2847       C  0.80963779  0.05934105  0.16326601     0.06100
F2848       F  0.81604867  0.10688442  0.14363309    -0.19700
H2849       H  0.80069429  0.14213963  0.16878250     0.15900
F2850       F  0.77285277  0.09868109  0.23183751    -0.23400
H2851       H  0.78614055  0.06304028  0.20588304     0.17700
C2852       C  0.81965766  0.04024564  0.17642584     0.25700
C2853       C  0.82568589  0.01887138  0.16511658    -0.12000
C2854       C  0.82293778  0.01637505  0.14035864    -0.26000
C2855       C  0.81422556  0.03582818  0.12695284     0.36600
C2856       C  0.80710714  0.05678242  0.13839870    -0.27600
F2857       F  0.82405062  0.04225996  0.20017902    -0.19800
H2858       H  0.83283195  0.00431328  0.17573132     0.15900
F2859       F  0.81163262  0.03435011  0.10288292    -0.23500
H2860       H  0.79905260  0.07077459  0.12772369     0.17800
C2861       C  0.80206121  0.84075894  0.16272699    -0.27500
C2862       C  0.80523056  0.86178904  0.17599138     0.06100
C2863       C  0.80189583  0.86108267  0.20087625     0.25700
C2864       C  0.79522078  0.83992655  0.21212556    -0.12000
C2865       C  0.79206114  0.81883105  0.19897235    -0.25900
C2866       C  0.79572422  0.81938330  0.17408505     0.36500
C2867       C  0.81153955  0.88455490  0.16399015     0.06100
F2868       F  0.80572125  0.88072104  0.21449204    -0.19700
H2869       H  0.79281531  0.84005051  0.23133323     0.15900
F2870       F  0.79399681  0.79920868  0.16083313    -0.23400
H2871       H  0.80441379  0.84088194  0.14352168     0.17700
C2872       C  0.82992661  0.88574373  0.14688183     0.25700
C2873       C  0.83560067  0.90753799  0.13603357    -0.12000
C2874       C  0.82335013  0.92852247  0.14232495    -0.26000
C2875       C  0.80507313  0.92730950  0.15948752     0.36600
C2876       C  0.79911185  0.90550566  0.16995073    -0.27600
F2877       F  0.84274234  0.86601821  0.14102386    -0.19800
H2878       H  0.84974943  0.90805701  0.12283932     0.15900
F2879       F  0.79227806  0.94698695  0.16551512    -0.23500
H2880       H  0.78448971  0.90496219  0.18260896     0.17800
C2881       C  0.74014523  0.50161164  0.98351928    -0.27500
C2882       C  0.73220160  0.48909464  0.00383255     0.06100
C2883       C  0.72312363  0.50208752  0.02327748     0.25700
C2884       C  0.72180483  0.52700767  0.02221305    -0.12000
C2885       C  0.72943898  0.53956702  0.00176366    -0.25900
C2886       C  0.73876605  0.52654719  0.98240291     0.36500
C2887       C  0.73297669  0.46255622  0.00436635     0.06100
F2888       F  0.71490792  0.49068239  0.04307379    -0.19700
H2889       H  0.71455343  0.53648497  0.03741546     0.15900
F2890       F  0.74722069  0.53785229  0.96266050    -0.23400
H2891       H  0.74765724  0.49202983  0.96850755     0.17700
C2892       C  0.72379534  0.44927195  0.98520442     0.25700
C2893       C  0.72467820  0.42435375  0.98562323    -0.12000
C2894       C  0.73440263  0.41200238  0.00528069    -0.26000
C2895       C  0.74333862  0.42529908  0.02464777     0.36600
C2896       C  0.74273686  0.45030833  0.02405635    -0.27600
F2897       F  0.71330890  0.46037204  0.96632153    -0.19800
H2898       H  0.71733841  0.41470773  0.97059190     0.15900
F2899       F  0.75305751  0.41425871  0.04396953    -0.23500
H2900       H  0.75012796  0.46014453  0.03893867     0.17800
C2901       C  0.74629313  0.29812108  0.07086436    -0.27500
C2902       C  0.74043982  0.30966391  0.09239741     0.06100
C2903       C  0.73390143  0.33394873  0.09150407     0.25700
C2904       C  0.73347316  0.34629482  0.06979139    -0.12000
C2905       C  0.73910775  0.33480724  0.04824919    -0.25900
C2906       C  0.74552295  0.31043866  0.04898860     0.36500
C2907       C  0.74206043  0.29678813  0.11578541     0.06100
F2908       F  0.72732354  0.34576199  0.11158701    -0.19700
H2909       H  0.72821002  0.36490662  0.06987070     0.15900
F2910       F  0.75155359  0.29857757  0.02874293    -0.23400
H2911       H  0.75191423  0.27961768  0.07098551     0.17700
C2912       C  0.73328730  0.27337717  0.11879731     0.25700
C2913       C  0.73582473  0.26149445  0.14079726    -0.12000
C2914       C  0.74672404  0.27281279  0.16036347    -0.26000
C2915       C  0.75485941  0.29643443  0.15747352     0.36600
C2916       C  0.75283961  0.30802259  0.13542451    -0.27600
F2917       F  0.72201027  0.26205430  0.10062079    -0.19800
H2918       H  0.72923799  0.24340269  0.14253840     0.15900
F2919       F  0.76585413  0.30808012  0.17562442    -0.23500
H2920       H  0.76030306  0.32575250  0.13360600     0.17800
C2921       C  0.73202630  0.33675133  0.91678271    -0.27500
C2922       C  0.73049401  0.31176850  0.91651112     0.06100
C2923       C  0.72797308  0.29941083  0.93830482     0.25700
C2924       C  0.72819098  0.31180538  0.95990545    -0.12000
C2925       C  0.73070217  0.33677100  0.96028401    -0.25900
C2926       C  0.73194056  0.34920699  0.93832897     0.36500
C2927       C  0.73393877  0.29873100  0.89377407     0.06100
F2928       F  0.72563454  0.27529096  0.93877153    -0.19700
H2929       H  0.72674623  0.30171940  0.97638370     0.15900
F2930       F  0.73402588  0.37332823  0.93747785    -0.23400
H2931       H  0.73435573  0.34667539  0.90030746     0.17700
C2932       C  0.72281120  0.30622059  0.87242992     0.25700
C2933       C  0.72823312  0.29497103  0.85082750    -0.12000
C2934       C  0.74437623  0.27581685  0.85029407    -0.26000
C2935       C  0.75506963  0.26801232  0.87169083     0.36600
C2936       C  0.75005222  0.27953829  0.89308254    -0.27600
F2937       F  0.70663465  0.32428537  0.87245143    -0.19800
H2938       H  0.71969485  0.30109793  0.83455065     0.15900
F2939       F  0.77126921  0.24993119  0.87182388    -0.23500
H2940       H  0.75943509  0.27387932  0.90904921     0.17800
C2941       C  0.00717515  0.16025815  0.02422172    -0.27500
C2942       C  0.01620421  0.14982086  0.00335317     0.06100
C2943       C  0.00042954  0.14342326  0.98499904     0.25700
C2944       C  0.97632148  0.14959864  0.98653104    -0.12000
C2945       C  0.96751771  0.16172401  0.00664134    -0.25900
C2946       C  0.98300228  0.16605485  0.02600716     0.36500
C2947       C  0.04223717  0.14912824  0.99957438     0.06100
F2948       F  0.00856504  0.13200515  0.96524621    -0.19700
H2949       H  0.96464280  0.14539190  0.97171482     0.15900
F2950       F  0.97527428  0.17731903  0.04601197    -0.23400
H2951       H  0.01912114  0.16526324  0.03857626     0.17700
C2952       C  0.05226988  0.16180138  0.98032191     0.25700
C2953       C  0.07690284  0.16484937  0.97887889    -0.12000
C2954       C  0.09186770  0.15579990  0.99686498    -0.26000
C2955       C  0.08197104  0.14201549  0.01543813     0.36600
C2956       C  0.05727945  0.13875839  0.01676236    -0.27600
F2957       F  0.03814354  0.17306454  0.96408748    -0.19800
H2958       H  0.08407437  0.17578093  0.96458056     0.15900
F2959       F  0.09607014  0.13237797  0.03269161    -0.23500
H2960       H  0.04979262  0.12895800  0.03170122     0.17800
C2961       C  0.89753654  0.20447790  0.09127792    -0.27500
C2962       C  0.87366418  0.19747767  0.09463958     0.06100
C2963       C  0.86169630  0.18593247  0.07578985     0.25700
C2964       C  0.87313802  0.18215469  0.05393479    -0.12000
C2965       C  0.89692092  0.18911698  0.05065395    -0.25900
C2966       C  0.90916534  0.20014973  0.06956078     0.36500
C2967       C  0.86099484  0.20269345  0.11742293     0.06100
F2968       F  0.83907934  0.17775199  0.07868253    -0.19700
H2969       H  0.86357228  0.17325272  0.03970638     0.15900
F2970       F  0.93210498  0.20744964  0.06674879    -0.23400
H2971       H  0.90707141  0.21367646  0.10532262     0.17700
C2972       C  0.87144586  0.19771427  0.13980169     0.25700
C2973       C  0.85866424  0.20194286  0.16091439    -0.12000
C2974       C  0.83512473  0.21067664  0.16007916    -0.26000
C2975       C  0.82485059  0.21593569  0.13777301     0.36600
C2976       C  0.83780684  0.21231886  0.11676779    -0.27600
F2977       F  0.89354083  0.18780589  0.14127055    -0.19800
H2978       H  0.86685356  0.19757244  0.17791719     0.15900
F2979       F  0.80234007  0.22483367  0.13626351    -0.23500
H2980       H  0.82957424  0.21691308  0.09985417     0.17800
C2981       C  0.87209222  0.22157217  0.87789942    -0.27500
C2982       C  0.86214347  0.20686129  0.89563596     0.06100
C2983       C  0.83959304  0.19673491  0.89185369     0.25700
C2984       C  0.82726761  0.20107718  0.87061194    -0.12000
C2985       C  0.83701286  0.21583397  0.85267171    -0.25900
C2986       C  0.85961734  0.22621792  0.85663746     0.36500
C2987       C  0.87492940  0.20227173  0.91832737     0.06100
F2988       F  0.82965713  0.18225207  0.90860917    -0.19700
H2989       H  0.81007548  0.19260348  0.86818320     0.15900
F2990       F  0.86953034  0.24113781  0.84026185    -0.23400
H2991       H  0.88938579  0.22972591  0.88069948     0.17700
C2992       C  0.89634661  0.18923401  0.91874317     0.25700
C2993       C  0.90730243  0.18364276  0.94057376    -0.12000
C2994       C  0.89712539  0.19100169  0.96240004    -0.26000
C2995       C  0.87583254  0.20451092  0.96173715     0.36600
C2996       C  0.86488968  0.20991954  0.93992619    -0.27600
F2997       F  0.90620164  0.18122828  0.89809871    -0.19800
H2998       H  0.92363363  0.17326849  0.94035193     0.15900
F2999       F  0.86553121  0.21271655  0.98206758    -0.23500
H3000       H  0.84841070  0.22008120  0.93986532     0.17800
C3001       C  0.34964826  0.44844898  0.01945635    -0.27500
C3002       C  0.34208844  0.46182614  0.99955475     0.06100
C3003       C  0.33361477  0.44961248  0.97929678     0.25700
C3004       C  0.33254474  0.42467339  0.97919755    -0.12000
C3005       C  0.33949412  0.41135026  0.99936173    -0.25900
C3006       C  0.34809523  0.42355844  0.01956359     0.36500
C3007       C  0.34238450  0.48839014  0.00034096     0.06100
F3008       F  0.32548320  0.46173830  0.95988862    -0.19700
H3009       H  0.32565883  0.41581485  0.96347657     0.15900
F3010       F  0.35529854  0.41152884  0.03939442    -0.23400
H3011       H  0.35678660  0.45729310  0.03506607     0.17700
C3012       C  0.33404171  0.50071226  0.02060312     0.25700
C3013       C  0.33354060  0.52564445  0.02086003    -0.12000
C3014       C  0.34073153  0.53890911  0.00077517    -0.26000
C3015       C  0.34932486  0.52662550  0.98057662     0.36600
C3016       C  0.35042416  0.50167687  0.98056951    -0.27600
F3017       F  0.32528171  0.48871632  0.03980075    -0.19800
H3018       H  0.32662669  0.53455325  0.03655840     0.15900
F3019       F  0.35673933  0.53862328  0.96081358    -0.23500
H3020       H  0.35746835  0.49272549  0.96496008     0.17800
C3021       C  0.33521344  0.64985362  0.06947351    -0.27500
C3022       C  0.32600857  0.63776096  0.08953995     0.06100
C3023       C  0.31918162  0.61371205  0.08701420     0.25700
C3024       C  0.32215641  0.60201533  0.06515682    -0.12000
C3025       C  0.33128972  0.61413445  0.04510262    -0.25900
C3026       C  0.33769871  0.63829061  0.04746119     0.36500
C3027       C  0.32263271  0.65069041  0.11256488     0.06100
F3028       F  0.30867340  0.60173790  0.10532426    -0.19700
H3029       H  0.31664040  0.58354843  0.06375518     0.15900
F3030       F  0.34682218  0.65065091  0.02867098    -0.23400
H3031       H  0.34061508  0.66835142  0.07085832     0.17700
C3032       C  0.32917670  0.64045016  0.13467199     0.25700
C3033       C  0.32443048  0.65245959  0.15612112    -0.12000
C3034       C  0.31368492  0.67519352  0.15596998    -0.26000
C3035       C  0.30844258  0.68592685  0.13373314     0.36600
C3036       C  0.31260934  0.67367656  0.11244003    -0.27600
F3037       F  0.34054047  0.61904272  0.13555984    -0.19800
H3038       H  0.32920285  0.64395129  0.17286525     0.15900
F3039       F  0.29844270  0.70798407  0.13241776    -0.23500
H3040       H  0.30746593  0.68206641  0.09574832     0.17800
C3041       C  0.32084113  0.61374486  0.91376239    -0.27500
C3042       C  0.32373230  0.63857540  0.91237866     0.06100
C3043       C  0.32879331  0.65127853  0.93345534     0.25700
C3044       C  0.33159703  0.63917465  0.95524447    -0.12000
C3045       C  0.32913881  0.61421935  0.95656399    -0.25900
C3046       C  0.32328177  0.60167212  0.93553471     0.36500
C3047       C  0.32014486  0.65105351  0.88912804     0.06100
F3048       F  0.33136763  0.67536287  0.93295127    -0.19700
H3049       H  0.33586557  0.64937585  0.97107539     0.15900
F3050       F  0.31916259  0.57780166  0.93598332    -0.23400
H3051       H  0.31610357  0.60368915  0.89796587     0.17700
C3052       C  0.33167182  0.64328011  0.86813550     0.25700
C3053       C  0.32673859  0.65424746  0.84606342    -0.12000
C3054       C  0.31041100  0.67327869  0.84457958    -0.26000
C3055       C  0.29911848  0.68111712  0.86569618     0.36600
C3056       C  0.30397622  0.67012238  0.88761095    -0.27600
F3057       F  0.34784355  0.62521752  0.86902663    -0.19800
H3058       H  0.33577354  0.64796288  0.83016482     0.15900
F3059       F  0.28247747  0.69875643  0.86506630    -0.23500
H3060       H  0.29448108  0.67608099  0.90337167     0.17800
C3061       C  0.99909215  0.79711446  0.98396570    -0.27500
C3062       C  0.01320365  0.79068436  0.00370001     0.06100
C3063       C  0.00197250  0.78294933  0.02480567     0.25700
C3064       C  0.97728425  0.77953592  0.02528826    -0.12000
C3065       C  0.96337415  0.78388884  0.00480871    -0.25900
C3066       C  0.97438357  0.79383880  0.98446828     0.36500
C3067       C  0.03942756  0.78863957  0.00108396     0.06100
F3068       F  0.01501060  0.77684835  0.04434485    -0.19700
H3069       H  0.96929599  0.77220016  0.04133132     0.15900
F3070       F  0.96144788  0.79975839  0.96480556    -0.23400
H3071       H  0.00738313  0.80368020  0.96773797     0.17700
C3072       C  0.04895847  0.77486164  0.98241587     0.25700
C3073       C  0.07336048  0.77014633  0.98143890    -0.12000
C3074       C  0.08876491  0.77859831  0.99927649    -0.26000
C3075       C  0.07940298  0.79306139  0.01758231     0.36600
C3076       C  0.05491608  0.79813350  0.01833900    -0.27600
F3077       F  0.03446790  0.76448307  0.96602785    -0.19800
H3078       H  0.07998711  0.75873613  0.96731930     0.15900
F3079       F  0.09377840  0.80200572  0.03488736    -0.23500
H3080       H  0.04792723  0.80892358  0.03276867     0.17800
C3081       C  0.19142772  0.73368722  0.06674628    -0.27500
C3082       C  0.18351795  0.74518733  0.08744650     0.06100
C3083       C  0.16431693  0.76123800  0.08611478     0.25700
C3084       C  0.15301804  0.76550155  0.06424457    -0.12000
C3085       C  0.16077818  0.75388504  0.04336878    -0.25900
C3086       C  0.18020085  0.73786634  0.04489842     0.36500
C3087       C  0.19629453  0.74124310  0.11007373     0.06100
F3088       F  0.15697973  0.77325586  0.10582444    -0.19700
H3089       H  0.13831084  0.77806634  0.06363973     0.15900
F3090       F  0.18817719  0.72580313  0.02549697    -0.23400
H3091       H  0.20631507  0.72132889  0.06757123     0.17700
C3092       C  0.18481091  0.73119270  0.12998346     0.25700
C3093       C  0.19734255  0.72784437  0.15134326    -0.12000
C3094       C  0.22149713  0.73453462  0.15314923    -0.26000
C3095       C  0.23290298  0.74443763  0.13286919     0.36600
C3096       C  0.22036679  0.74758339  0.11161596    -0.27600
F3097       F  0.16163190  0.72429477  0.12861657    -0.19800
H3098       H  0.18806840  0.72009028  0.16646593     0.15900
F3099       F  0.25609808  0.75142595  0.13341874    -0.23500
H3100       H  0.22939972  0.75534399  0.09633130     0.17800
C3101       C  0.18892814  0.72569937  0.93351372    -0.27500
C3102       C  0.18011732  0.73498184  0.91190829     0.06100
C3103       C  0.15932756  0.74907919  0.91224765     0.25700
C3104       C  0.14826394  0.75460123  0.93388934    -0.12000
C3105       C  0.15768871  0.74629180  0.95566678    -0.25900
C3106       C  0.17791950  0.73127325  0.95520303     0.36500
C3107       C  0.19342457  0.73124629  0.88932405     0.06100
F3108       F  0.15035060  0.75856113  0.89177893    -0.19700
H3109       H  0.13267506  0.76606318  0.93358056     0.15900
F3110       F  0.18716526  0.72191766  0.97559143    -0.23400
H3111       H  0.20459175  0.71432663  0.93361719     0.17700
C3112       C  0.21805402  0.73588724  0.88817274     0.25700
C3113       C  0.23021062  0.73405450  0.86650432    -0.12000
C3114       C  0.21813821  0.72773125  0.84540167    -0.26000
C3115       C  0.19344381  0.72295989  0.84662177     0.36600
C3116       C  0.18136244  0.72447715  0.86843135    -0.27600
F3117       F  0.23024295  0.74320379  0.90778681    -0.19800
H3118       H  0.24914319  0.73794149  0.86628705     0.15900
F3119       F  0.18073272  0.71745009  0.82675187    -0.23500
H3120       H  0.16241461  0.72067206  0.86893210     0.17800
loop_ 
_geom_bond_atom_site_label_1 
_geom_bond_atom_site_label_2 
_geom_bond_distance 
_geom_bond_site_symmetry_2 
_ccdc_geom_bond_type 
C1            N2   1.357       .  A
C1            N6   1.357       .  A
C1         C3105   1.483       .  S
N2            C3   1.358       .  A
C3            N4   1.358   1_556  A
C3         C3074   1.479       .  S
N4            C5   1.360       .  A
C5            N6   1.358   1_554  A
C5         C3085   1.482       .  S
C7            N8   1.360       .  A
C7           N12   1.362       .  A
C7         C3025   1.485       .  S
N8            C9   1.359       .  A
C9           N10   1.357   1_554  A
C9         C3014   1.483       .  S
N10          C11   1.358       .  A
C11          N12   1.362   1_556  A
C11        C3045   1.489       .  S
C13          N14   1.359       .  A
C13          N18   1.355       .  A
C13        C2965   1.474       .  S
N14          C15   1.361   1_554  A
C15          N16   1.360       .  A
C15        C2994   1.491       .  S
N16          C17   1.360   1_556  A
C17          N18   1.356       .  A
C17        C2945   1.478       .  S
C19          N20   1.357       .  A
C19          N24   1.361   1_556  A
C19        C2925   1.485       .  S
N20          C21   1.357   1_556  A
C21          N22   1.359       .  A
C21        C2894   1.486       .  S
N22          C23   1.362       .  A
C23          N24   1.360       .  A
C23        C2905   1.488       .  S
C25          N26   1.355       .  A
C25          N30   1.359       .  A
C25        C2874   1.475       .  S
N26          C27   1.356       .  A
C27          N28   1.356       .  A
C27        C2834   1.472       .  S
N28          C29   1.356       .  A
C29          N30   1.359       .  A
C29        C2854   1.477   1_565  S
C31          N32   1.362       .  A
C31          N36   1.358       .  A
C31        C2794   1.482   1_565  S
N32          C33   1.362       .  A
C33          N34   1.358       .  A
C33        C2805   1.483       .  S
N34          C35   1.355       .  A
C35          N36   1.357       .  A
C35        C2765   1.480       .  S
C37          N38   1.355       .  A
C37          N42   1.356       .  A
C37        C2725   1.477   1_565  S
N38          C39   1.357       .  A
C39          N40   1.358       .  A
C39        C2754   1.480       .  S
N40          C41   1.358       .  A
C41          N42   1.358       .  A
C41        C2705   1.481       .  S
C43          N44   1.360       .  A
C43          N48   1.359       .  A
C43        C2685   1.480       .  S
N44          C45   1.362       .  A
C45          N46   1.362       .  A
C45        C2665   1.489   1_565  S
N46          C47   1.359       .  A
C47          N48   1.356       .  A
C47        C2645   1.479       .  S
C49          N50   1.357       .  A
C49          N54   1.357       .  A
C49        C2605   1.473       .  S
N50          C51   1.357       .  A
C51          N52   1.358   1_554  A
C51        C3065   1.480       .  S
N52          C53   1.357       .  A
C53          N54   1.357   1_556  A
C53        C2625   1.475       .  S
C55          N56   1.361       .  A
C55          N60   1.357       .  A
C55        C2574   1.491       .  S
N56          C57   1.362   1_554  A
C57          N58   1.362       .  A
C57        C2594   1.486       .  S
N58          C59   1.361   1_556  A
C59          N60   1.356       .  A
C59        C2885   1.486       .  S
C61          N62   1.358       .  A
C61          N66   1.357       .  A
C61        C2545   1.475       .  S
N62          C63   1.360   1_556  A
C63          N64   1.356       .  A
C63        C2534   1.476       .  S
N64          C65   1.356   1_554  A
C65          N66   1.356       .  A
C65        C2954   1.471       .  S
C67          N68   1.359       .  A
C67          N72   1.361       .  A
C67        C2505   1.478       .  S
N68          C69   1.359       .  A
C69          N70   1.357   1_556  A
C69        C3005   1.483       .  S
N70          C71   1.358       .  A
C71          N72   1.361   1_554  A
C71        C2485   1.484       .  S
C73          N74   1.359       .  A
C73          N78   1.358       .  A
C73        C2465   1.483       .  S
N74          C75   1.358       .  A
C75          N76   1.354       .  A
C75        C2445   1.484   1_565  S
N76          C77   1.356       .  A
C77          N78   1.357       .  A
C77        C2825   1.470       .  S
C79          N80   1.357       .  A
C79          N84   1.359       .  A
C79        C2405   1.481   1_565  S
N80          C81   1.355       .  A
C81          N82   1.361       .  A
C81        C2425   1.486       .  S
N82          C83   1.360       .  A
C83          N84   1.361       .  A
C83        C2654   1.491       .  S
C85          N86   1.361       .  A
C85          N90   1.357       .  A
C85        C2365   1.488   1_565  S
N86          C87   1.361       .  A
C87          N88   1.357       .  A
C87        C2714   1.479       .  S
N88          C89   1.354       .  A
C89          N90   1.356       .  A
C89        C2385   1.479       .  S
C91          N92   1.355       .  A
C91          N96   1.360       .  A
C91        C2354   1.482       .  S
N92          C93   1.356       .  A
C93          N94   1.362       .  A
C93        C2774   1.481       .  S
N94          C95   1.363       .  A
C95          N96   1.363       .  A
C95        C2325   1.494   1_565  S
C97          N98   1.355       .  A
C97         N102   1.355       .  A
C97        C2314   1.475   1_455  S
N98          C99   1.359       .  A
C99         N100   1.365       .  A
C99        C2265   1.484       .  S
N100        C101   1.364       .  A
C101        N102   1.359       .  A
C101       C2294   1.492       .  S
C103        N104   1.358       .  A
C103        N108   1.360       .  A
C103       C2254   1.479   1_455  S
N104        C105   1.356       .  A
C105        N106   1.356       .  A
C105       C2225   1.474       .  S
N106        C107   1.356       .  A
C107        N108   1.359       .  A
C107       C2214   1.480       .  S
C109        N110   1.356       .  A
C109        N114   1.361       .  A
C109       C2165   1.487       .  S
N110        C111   1.355       .  A
C111        N112   1.357       .  A
C111       C2194   1.473   1_455  S
N112        C113   1.358       .  A
C113        N114   1.362       .  A
C113       C2274   1.486       .  S
C115        N116   1.364       .  A
C115        N120   1.363       .  A
C115       C2154   1.487   1_455  S
N116        C117   1.363       .  A
C117        N118   1.354       .  A
C117       C2125   1.483       .  S
N118        C119   1.354       .  A
C119        N120   1.359       .  A
C119       C2105   1.482       .  S
C121        N122   1.360       .  A
C121        N126   1.356       .  A
C121       C2085   1.479       .  S
N122        C123   1.360       .  A
C123        N124   1.359       .  A
C123       C2065   1.474   1_455  S
N124        C125   1.358       .  A
C125        N126   1.356       .  A
C125       C2045   1.478       .  S
C127        N128   1.360       .  A
C127        N132   1.362       .  A
C127       C2034   1.476       .  S
N128        C129   1.357       .  A
C129        N130   1.354       .  A
C129       C2014   1.472   1_455  S
N130        C131   1.355       .  A
C131        N132   1.362       .  A
C131       C2114   1.485       .  S
C133        N134   1.350       .  A
C133        N138   1.356       .  A
C133       C1985   1.470   1_455  S
N134        C135   1.354       .  A
C135        N136   1.362       .  A
C135       C2054   1.482       .  S
N136        C137   1.364       .  A
C137        N138   1.360       .  A
C137       C1974   1.488       .  S
C139        N140   1.359       .  A
C139        N144   1.361       .  A
C139       C1925   1.479       .  S
N140        C141   1.358       .  A
C141        N142   1.356       .  A
C141       C1954   1.475   1_455  S
N142        C143   1.357       .  A
C143        N144   1.360       .  A
C143       C2205   1.481       .  S
C145        N146   1.356       .  A
C145        N150   1.351       .  A
C145       C1894   1.475       .  S
N146        C147   1.360       .  A
C147        N148   1.364       .  A
C147       C1905   1.485       .  S
N148        C149   1.361       .  A
C149        N150   1.352       .  A
C149       C1865   1.475       .  S
C151        N152   1.364       .  A
C151        N156   1.358       .  A
C151       C1854   1.495       .  S
N152        C153   1.365       .  A
C153        N154   1.363       .  A
C153       C1834   1.495       .  S
N154        C155   1.359       .  A
C155        N156   1.358       .  A
C155       C1814   1.490       .  S
O157       Zr193   2.418       .  S
O157        C168   1.289       .  A
O158       Zr192   2.441       .  S
O158        C169   1.293       .  A
O159       Zr165   2.467       .  S
O159        C170   1.298       .  A
O160       Zr165   2.440       .  S
O160        C171   1.292       .  A
O161       Zr195   2.440       .  S
O161        C171   1.292       .  A
O162       Zr194   2.440       .  S
O162        C170   1.292       .  A
O163       Zr165   2.440       .  S
O163        C169   1.294       .  A
O164       Zr165   2.446       .  S
O164        C168   1.295       .  A
Zr165       O166   2.347       .  S
Zr165       O167   2.342       .  S
Zr165       O175   2.348       .  S
Zr165       O173   2.336       .  S
O166       Zr192   2.335       .  S
O166       Zr195   2.335       .  S
O167       Zr193   2.346       .  S
O167       Zr194   2.329       .  S
C168       C3094   1.483       .  S
C169       C2025   1.491       .  S
C170       C1825   1.492       .  S
C171       C2094   1.472       .  S
H172        O173   0.974       .  S
O173       Zr192   2.343       .  S
O173       Zr194   2.338       .  S
H174        O175   0.970       .  S
O175       Zr193   2.347       .  S
O175       Zr195   2.340       .  S
O176       Zr192   2.432       .  S
O176        C199   1.291       .  A
O177       Zr193   2.452       .  S
O177        C200   1.295       .  A
O178       Zr194   2.414       .  S
O178        C201   1.289       .  A
O179       Zr195   2.447       .  S
O179        C202   1.294       .  A
O180       Zr195   2.420       .  S
O180        C203   1.290       .  A
O181       Zr194   2.447       .  S
O181        C204   1.294       .  A
O182       Zr196   2.446       .  S
O182        C205   1.294       .  A
O183       Zr196   2.451       .  S
O183        C206   1.295       .  A
O184       Zr194   2.414       .  S
O184        C205   1.288       .  A
O185       Zr195   2.435       .  S
O185        C206   1.292       .  A
O186       Zr192   2.435       .  S
O186        C201   1.292       .  A
O187       Zr193   2.436       .  S
O187        C204   1.292       .  A
O188       Zr193   2.437       .  S
O188        C203   1.292       .  A
O189       Zr192   2.440       .  S
O189        C202   1.293       .  A
O190       Zr196   2.422       .  S
O190        C199   1.291       .  A
O191       Zr196   2.437       .  S
O191        C200   1.292       .  A
Zr192       O198   2.339       .  S
Zr192       O210   2.342       .  S
Zr193       O197   2.331       .  S
Zr193       O208   2.327       .  S
Zr194       O198   2.342       .  S
Zr194       O208   2.337       .  S
Zr195       O197   2.343       .  S
Zr195       O210   2.332       .  S
Zr196       O197   2.332       .  S
Zr196       O198   2.342       .  S
Zr196       O210   2.342       .  S
Zr196       O208   2.340       .  S
C199       C1774   1.473       .  S
C200       C1745   1.489       .  S
C201       C1885   1.479       .  S
C202       C1794   1.486       .  S
C203       C2394   1.482       .  S
C204       C3034   1.489       .  S
C205       C1725   1.475       .  S
C206       C2345   1.487       .  S
H207        O208   0.970       .  S
H209        O210   0.971       .  S
C211        N212   1.355       .  A
C211        N216   1.357       .  A
C211       C1705   1.474       .  S
N212        C213   1.352       .  A
C213        N214   1.353       .  A
C213       C1694   1.467       .  S
N214        C215   1.354       .  A
C215        N216   1.357       .  A
C215       C1665   1.473       .  S
C217        N218   1.359       .  A
C217        N222   1.363       .  A
C217       C1645   1.490       .  S
N218        C219   1.358       .  A
C219        N220   1.358       .  A
C219       C1625   1.480       .  S
N220        C221   1.359       .  A
C221        N222   1.363       .  A
C221       C1614   1.486       .  S
O223       Zr259   2.424       .  S
O223        C234   1.290       .  A
O224       Zr258   2.449       .  S
O224        C235   1.295       .  A
O225       Zr231   2.450       .  S
O225        C236   1.294       .  A
O226       Zr231   2.426       .  S
O226        C237   1.290       .  A
O227       Zr261   2.439       .  S
O227        C237   1.292       .  A
O228       Zr260   2.422       .  S
O228        C236   1.290       .  A
O229       Zr231   2.446       .  S
O229        C235   1.294       .  A
O230       Zr231   2.458       .  S
O230        C234   1.297       .  A
Zr231       O232   2.342       .  S
Zr231       O233   2.332       .  S
Zr231       O241   2.350       .  S
Zr231       O239   2.340       .  S
O232       Zr258   2.339       .  S
O232       Zr261   2.339       .  S
O233       Zr259   2.345       .  S
O233       Zr260   2.328       .  S
C234       C2734   1.488       .  S
C235       C2514   1.496       .  S
C236       C1545   1.488       .  S
C237       C2554   1.467       .  S
H238        O239   0.971       .  S
O239       Zr258   2.341       .  S
O239       Zr260   2.338       .  S
H240        O241   0.971       .  S
O241       Zr259   2.342       .  S
O241       Zr261   2.339       .  S
O242       Zr258   2.440       .  S
O242        C265   1.293       .  A
O243       Zr259   2.451       .  S
O243        C266   1.295       .  A
O244       Zr260   2.434       .  S
O244        C267   1.292       .  A
O245       Zr261   2.438       .  S
O245        C268   1.293       .  A
O246       Zr261   2.437       .  S
O246        C269   1.293       .  A
O247       Zr260   2.443       .  S
O247        C270   1.293       .  A
O248       Zr262   2.428       .  S
O248        C271   1.291       .  A
O249       Zr262   2.437       .  S
O249        C272   1.292       .  A
O250       Zr260   2.423       .  S
O250        C271   1.290       .  A
O251       Zr261   2.433       .  S
O251        C272   1.292       .  A
O252       Zr258   2.443       .  S
O252        C267   1.294       .  A
O253       Zr259   2.435       .  S
O253        C270   1.292       .  A
O254       Zr259   2.452       .  S
O254        C269   1.294       .  A
O255       Zr258   2.438       .  S
O255        C268   1.293       .  A
O256       Zr262   2.448       .  S
O256        C265   1.294       .  A
O257       Zr262   2.432       .  S
O257        C266   1.291       .  A
Zr258       O264   2.336       .  S
Zr258       O276   2.345       .  S
Zr259       O263   2.340       .  S
Zr259       O274   2.334       .  S
Zr260       O264   2.336       .  S
Zr260       O274   2.333       .  S
Zr261       O263   2.341       .  S
Zr261       O276   2.343       .  S
Zr262       O263   2.343       .  S
Zr262       O264   2.336       .  S
Zr262       O276   2.337       .  S
Zr262       O274   2.346       .  S
C265       C1565   1.481       .  S
C266       C1634   1.487       .  S
C267       C1534   1.489       .  S
C268       C1594   1.482       .  S
C269       C2285   1.494       .  S
C270       C2674   1.479       .  S
C271       C1685   1.473       .  S
C272       C2234   1.480       .  S
H273        O274   0.969       .  S
H275        O276   0.973       .  S
C277        N278   1.352       .  A
C277        N282   1.351       .  A
C277       C1765   1.470       .  S
N278        C279   1.355       .  A
C279        N280   1.361       .  A
C279       C1505   1.478       .  S
N280        C281   1.359       .  A
C281        N282   1.354       .  A
C281       C1485   1.467       .  S
C283        N284   1.362       .  A
C283        N288   1.361       .  A
C283       C1474   1.487       .  S
N284        C285   1.362       .  A
C285        N286   1.359       .  A
C285       C1785   1.488       .  S
N286        C287   1.359       .  A
C287        N288   1.361       .  A
C287       C1605   1.484       .  S
C289        N290   1.357       .  A
C289        N294   1.357       .  A
C289       C1445   1.474       .  S
N290        C291   1.360       .  A
C291        N292   1.361       .  A
C291       C1874   1.486       .  S
N292        C293   1.360       .  A
C293        N294   1.358       .  A
C293       C1574   1.486       .  S
C295        N296   1.361       .  A
C295        N300   1.361       .  A
C295       C1585   1.483       .  S
N296        C297   1.359       .  A
C297        N298   1.357       .  A
C297       C1425   1.489       .  S
N298        C299   1.356       .  A
C299        N300   1.361       .  A
C299       C1414   1.485       .  S
O301       Zr337   2.428       .  S
O301        C312   1.291       .  A
O302       Zr336   2.446       .  S
O302        C313   1.293       .  A
O303       Zr309   2.434       .  S
O303        C314   1.292       .  A
O304       Zr309   2.429       .  S
O304        C315   1.291       .  A
O305       Zr339   2.453       .  S
O305        C315   1.295       .  A
O306       Zr338   2.443       .  S
O306        C314   1.293       .  A
O307       Zr309   2.426       .  S
O307        C313   1.291       .  A
O308       Zr309   2.441       .  S
O308        C312   1.293       .  A
Zr309       O310   2.335       .  S
Zr309       O311   2.327       .  S
Zr309       O319   2.337       .  S
Zr309       O317   2.342       .  S
O310       Zr336   2.338       .  S
O310       Zr339   2.345       .  S
O311       Zr337   2.335       .  S
O311       Zr338   2.337       .  S
C312       C3114   1.485       .  S
C313       C2134   1.482       .  S
C314       C2174   1.489       .  S
C315       C1434   1.476       .  S
H316        O317   0.973       .  S
O317       Zr336   2.343       .  S
O317       Zr338   2.341       .  S
H318        O319   0.973       .  S
O319       Zr337   2.339       .  S
O319       Zr339   2.341       .  S
O320       Zr336   2.433       .  S
O320        C343   1.291       .  A
O321       Zr337   2.443       .  S
O321        C344   1.293       .  A
O322       Zr338   2.449       .  S
O322        C345   1.294       .  A
O323       Zr339   2.438       .  S
O323        C346   1.293       .  A
O324       Zr339   2.468       .  S
O324        C347   1.298       .  A
O325       Zr338   2.425       .  S
O325        C348   1.291       .  A
O326       Zr340   2.449       .  S
O326        C349   1.294       .  A
O327       Zr340   2.418       .  S
O327        C350   1.288       .  A
O328       Zr338   2.442       .  S
O328        C349   1.293       .  A
O329       Zr339   2.451       .  S
O329        C350   1.295       .  A
O330       Zr336   2.445       .  S
O330        C345   1.294       .  A
O331       Zr337   2.429       .  S
O331        C348   1.291       .  A
O332       Zr337   2.430       .  S
O332        C347   1.291       .  A
O333       Zr336   2.443       .  S
O333        C346   1.294       .  A
O334       Zr340   2.429       .  S
O334        C343   1.291       .  A
O335       Zr340   2.439       .  S
O335        C344   1.292       .  A
Zr336       O342   2.341       .  S
Zr336       O354   2.347       .  S
Zr337       O341   2.330       .  S
Zr337       O352   2.342       .  S
Zr338       O342   2.330       .  S
Zr338       O352   2.352       .  S
Zr339       O341   2.339       .  S
Zr339       O354   2.354       .  S
Zr340       O341   2.341       .  S
Zr340       O342   2.335       .  S
Zr340       O354   2.348       .  S
Zr340       O352   2.331       .  S
C343       C1514   1.470       .  S
C344       C1385   1.482       .  S
C345       C1465   1.495       .  S
C346       C1454   1.481       .  S
C347       C3054   1.487       .  S
C348       C2745   1.477       .  S
C349       C2694   1.494       .  S
C350       C1374   1.469       .  S
H351        O352   0.976       .  S
H353        O354   0.971       .  S
C355        N356   1.357       .  A
C355        N360   1.357       .  A
C355       C1345   1.483       .  S
N356        C357   1.358       .  A
C357        N358   1.359       .  A
C357       C1305   1.478       .  S
N358        C359   1.360       .  A
C359        N360   1.356       .  A
C359       C1325   1.481       .  S
C361        N362   1.362       .  A
C361        N366   1.356       .  A
C361       C1274   1.486       .  S
N362        C363   1.364       .  A
C363        N364   1.363       .  A
C363       C1285   1.487       .  S
N364        C365   1.361       .  A
C365        N366   1.354       .  A
C365       C1805   1.486       .  S
C367        N368   1.357       .  A
C367        N372   1.359       .  A
C367       C1245   1.480       .  S
N368        C369   1.355       .  A
C369        N370   1.355       .  A
C369       C1734   1.477       .  S
N370        C371   1.357       .  A
C371        N372   1.358       .  A
C371       C1225   1.476       .  S
C373        N374   1.360       .  A
C373        N378   1.363       .  A
C373       C1214   1.480       .  S
N374        C375   1.360       .  A
C375        N376   1.358       .  A
C375       C1754   1.482       .  S
N376        C377   1.359       .  A
C377        N378   1.362       .  A
C377       C1185   1.489       .  S
O379       Zr415   2.410       .  S
O379        C390   1.288       .  A
O380       Zr414   2.459       .  S
O380        C391   1.296       .  A
O381       Zr387   2.410       .  S
O381        C392   1.288       .  A
O382       Zr387   2.443       .  S
O382        C393   1.294       .  A
O383       Zr417   2.430       .  S
O383        C393   1.290       .  A
O384       Zr416   2.437       .  S
O384        C392   1.292       .  A
O385       Zr387   2.425       .  S
O385        C391   1.290       .  A
O386       Zr387   2.450       .  S
O386        C390   1.294       .  A
Zr387       O388   2.330       .  S
Zr387       O389   2.329       .  S
Zr387       O397   2.333       .  S
Zr387       O395   2.346       .  S
O388       Zr414   2.333       .  S
O388       Zr417   2.333       .  S
O389       Zr415   2.328       .  S
O389       Zr416   2.329       .  S
C390       C2865   1.479       .  S
C391       C2565   1.477       .  S
C392       C2614   1.477       .  S
C393       C1205   1.486       .  S
H394        O395   0.963       .  S
O395       Zr414   2.335       .  S
O395       Zr416   2.330       .  S
H396        O397   0.965       .  S
O397       Zr415   2.345       .  S
O397       Zr417   2.339       .  S
O398       Zr414   2.431       .  S
O398        C421   1.291       .  A
O399       Zr415   2.428       .  S
O399        C422   1.291       .  A
O400       Zr416   2.439       .  S
O400        C423   1.292       .  A
O401       Zr417   2.424       .  S
O401        C424   1.290       .  A
O402       Zr417   2.436       .  S
O402        C425   1.292       .  A
O403       Zr416   2.427       .  S
O403        C426   1.290       .  A
O404       Zr418   2.451       .  S
O404        C427   1.295       .  A
O405       Zr418   2.445       .  S
O405        C428   1.293       .  A
O406       Zr416   2.416       .  S
O406        C427   1.289       .  A
O407       Zr417   2.420       .  S
O407        C428   1.289       .  A
O408       Zr414   2.429       .  S
O408        C423   1.291       .  A
O409       Zr415   2.446       .  S
O409        C426   1.293       .  A
O410       Zr415   2.440       .  S
O410        C425   1.293       .  A
O411       Zr414   2.435       .  S
O411        C424   1.292       .  A
O412       Zr418   2.451       .  S
O412        C421   1.296       .  A
O413       Zr418   2.450       .  S
O413        C422   1.295       .  A
Zr414       O420   2.340       .  S
Zr414       O432   2.346       .  S
Zr415       O419   2.333       .  S
Zr415       O430   2.336       .  S
Zr416       O420   2.333       .  S
Zr416       O430   2.345       .  S
Zr417       O419   2.337       .  S
Zr417       O432   2.346       .  S
Zr418       O419   2.343       .  S
Zr418       O420   2.339       .  S
Zr418       O432   2.352       .  S
Zr418       O430   2.344       .  S
C421       C1334   1.488       .  S
C422       C1165   1.488       .  S
C423       C1265   1.482       .  S
C424       C1254   1.469       .  S
C425       C2814   1.485       .  S
C426       C2074   1.473       .  S
C427       C2005   1.485       .  S
C428       C1154   1.465       .  S
H429        O430   0.964       .  S
H431        O432   0.965       .  S
C433        N434   1.354       .  A
C433        N438   1.359       .  A
C433       C1125   1.480       .  S
N434        C435   1.354       .  A
C435        N436   1.355       .  A
C435       C1494   1.473       .  S
N436        C437   1.356       .  A
C437        N438   1.359       .  A
C437       C1145   1.482       .  S
C439        N440   1.359       .  A
C439        N444   1.353       .  A
C439       C1105   1.476       .  S
N440        C441   1.362       .  A
C441        N442   1.363       .  A
C441       C1174   1.479       .  S
N442        C443   1.359       .  A
C443        N444   1.354       .  A
C443       C1085   1.488       .  S
C445        N446   1.361       .  A
C445        N450   1.357       .  A
C445       C1065   1.477       .  S
N446        C447   1.361       .  A
C447        N448   1.356       .  A
C447       C1045   1.479       .  S
N448        C449   1.353       .  A
C449        N450   1.353       .  A
C449       C1365   1.470       .  S
C451        N452   1.364       .  A
C451        N456   1.363       .  A
C451       C1394   1.490       .  S
N452        C453   1.362       .  A
C453        N454   1.358       .  A
C453       C1025   1.489       .  S
N454        C455   1.356       .  A
C455        N456   1.359       .  A
C455       C1194   1.491       .  S
C457        N458   1.361       .  A
C457        N462   1.359       .  A
C457        C985   1.483       .  S
N458        C459   1.359       .  A
C459        N460   1.353       .  A
C459       C1314   1.479       .  S
N460        C461   1.355       .  A
C461        N462   1.357       .  A
C461       C1014   1.477       .  S
C463        N464   1.365       .  A
C463        N468   1.358       .  A
C463        C965   1.484       .  S
N464        C465   1.365       .  A
C465        N466   1.357       .  A
C465        C945   1.489       .  S
N466        C467   1.356       .  A
C467        N468   1.353       .  A
C467       C1405   1.478       .  S
O469       Zr505   2.444       .  S
O469        C480   1.293       .  A
O470       Zr504   2.455       .  S
O470        C481   1.296       .  A
O471       Zr477   2.442       .  S
O471        C482   1.292       .  A
O472       Zr477   2.416       .  S
O472        C483   1.288       .  A
O473       Zr507   2.438       .  S
O473        C483   1.292       .  A
O474       Zr506   2.426       .  S
O474        C482   1.291       .  A
O475       Zr477   2.432       .  S
O475        C481   1.291       .  A
O476       Zr477   2.424       .  S
O476        C480   1.289       .  A
Zr477       O478   2.336       .  S
Zr477       O479   2.336       .  S
Zr477       O487   2.343       .  S
Zr477       O485   2.331       .  S
O478       Zr504   2.334       .  S
O478       Zr507   2.339       .  S
O479       Zr505   2.346       .  S
O479       Zr506   2.327       .  S
C480       C2634   1.463       .  S
C481       C2145   1.491       .  S
C482        C974   1.483       .  S
C483       C2185   1.461       .  S
H484        O485   0.968       .  S
O485       Zr504   2.332       .  S
O485       Zr506   2.344       .  S
H486        O487   0.968       .  S
O487       Zr505   2.348       .  S
O487       Zr507   2.342       .  S
O488       Zr504   2.432       .  S
O488        C511   1.291       .  A
O489       Zr505   2.470       .  S
O489        C512   1.299       .  A
O490       Zr506   2.411       .  S
O490        C513   1.288       .  A
O491       Zr507   2.446       .  S
O491        C514   1.294       .  A
O492       Zr507   2.428       .  S
O492        C515   1.291       .  A
O493       Zr506   2.430       .  S
O493        C516   1.291       .  A
O494       Zr508   2.424       .  S
O494        C517   1.290       .  A
O495       Zr508   2.441       .  S
O495        C518   1.293       .  A
O496       Zr506   2.434       .  S
O496        C517   1.292       .  A
O497       Zr507   2.443       .  S
O497        C518   1.293       .  A
O498       Zr504   2.447       .  S
O498        C513   1.294       .  A
O499       Zr505   2.452       .  S
O499        C516   1.295       .  A
O500       Zr505   2.451       .  S
O500        C515   1.296       .  A
O501       Zr504   2.422       .  S
O501        C514   1.290       .  A
O502       Zr508   2.437       .  S
O502        C511   1.293       .  A
O503       Zr508   2.426       .  S
O503        C512   1.291       .  A
Zr504       O510   2.335       .  S
Zr504       O522   2.354       .  S
Zr505       O509   2.346       .  S
Zr505       O520   2.338       .  S
Zr506       O510   2.329       .  S
Zr506       O520   2.333       .  S
Zr507       O509   2.343       .  S
Zr507       O522   2.339       .  S
Zr508       O509   2.335       .  S
Zr508       O510   2.331       .  S
Zr508       O522   2.336       .  S
Zr508       O520   2.344       .  S
C511       C1134   1.474       .  S
C512       C1034   1.489       .  S
C513       C1005   1.475       .  S
C514       C1114   1.482       .  S
C515       C2474   1.488       .  S
C516       C2585   1.489       .  S
C517       C1074   1.481       .  S
C518       C2434   1.483       .  S
H519        O520   0.969       .  S
H521        O522   0.968       .  S
C523        N524   1.359       .  A
C523        N528   1.356       .  A
C523        C905   1.473       .  S
N524        C525   1.361       .  A
C525        N526   1.356       .  A
C525       C1234   1.478       .  S
N526        C527   1.355       .  A
C527        N528   1.353       .  A
C527        C934   1.467       .  S
C529        N530   1.359       .  A
C529        N534   1.364       .  A
C529        C894   1.488       .  S
N530        C531   1.357       .  A
C531        N532   1.355       .  A
C531        C845   1.478       .  S
N532        C533   1.359       .  A
C533        N534   1.363       .  A
C533        C865   1.486       .  S
O535       Zr571   2.447       .  S
O535        C546   1.294       .  A
O536       Zr570   2.450       .  S
O536        C547   1.294       .  A
O537       Zr543   2.468       .  S
O537        C548   1.297       .  A
O538       Zr543   2.425       .  S
O538        C549   1.290       .  A
O539       Zr573   2.434       .  S
O539        C549   1.292       .  A
O540       Zr572   2.438       .  S
O540        C548   1.293       .  A
O541       Zr543   2.417       .  S
O541        C547   1.289       .  A
O542       Zr543   2.441       .  S
O542        C546   1.293       .  A
Zr543       O544   2.349       .  S
Zr543       O545   2.335       .  S
Zr543       O553   2.342       .  S
Zr543       O551   2.334       .  S
O544       Zr570   2.329       .  S
O544       Zr573   2.338       .  S
O545       Zr571   2.349       .  S
O545       Zr572   2.334       .  S
C546       C2974   1.479       .  S
C547       C1945   1.484       .  S
C548       C1294   1.498       .  S
C549       C1994   1.466       .  S
H550        O551   0.964       .  S
O551       Zr570   2.340       .  S
O551       Zr572   2.339       .  S
H552        O553   0.964       .  S
O553       Zr571   2.346       .  S
O553       Zr573   2.351       .  S
O554       Zr570   2.428       .  S
O554        C577   1.291       .  A
O555       Zr571   2.466       .  S
O555        C578   1.298       .  A
O556       Zr572   2.428       .  S
O556        C579   1.291       .  A
O557       Zr573   2.469       .  S
O557        C580   1.298       .  A
O558       Zr573   2.438       .  S
O558        C581   1.293       .  A
O559       Zr572   2.441       .  S
O559        C582   1.293       .  A
O560       Zr574   2.436       .  S
O560        C583   1.293       .  A
O561       Zr574   2.451       .  S
O561        C584   1.295       .  A
O562       Zr572   2.425       .  S
O562        C583   1.290       .  A
O563       Zr573   2.440       .  S
O563        C584   1.292       .  A
O564       Zr570   2.426       .  S
O564        C579   1.291       .  A
O565       Zr571   2.452       .  S
O565        C582   1.295       .  A
O566       Zr571   2.443       .  S
O566        C581   1.294       .  A
O567       Zr570   2.435       .  S
O567        C580   1.291       .  A
O568       Zr574   2.432       .  S
O568        C577   1.292       .  A
O569       Zr574   2.433       .  S
O569        C578   1.291       .  A
Zr570       O576   2.337       .  S
Zr570       O588   2.343       .  S
Zr571       O575   2.351       .  S
Zr571       O586   2.338       .  S
Zr572       O576   2.335       .  S
Zr572       O586   2.340       .  S
Zr573       O575   2.351       .  S
Zr573       O588   2.330       .  S
Zr574       O575   2.338       .  S
Zr574       O576   2.336       .  S
Zr574       O588   2.342       .  S
Zr574       O586   2.346       .  S
C577        C805   1.472       .  S
C578        C885   1.496       .  S
C579       C1354   1.472       .  S
C580        C834   1.494       .  S
C581       C2845   1.475       .  S
C582       C2914   1.488       .  S
C583        C925   1.482       .  S
C584       C2785   1.486       .  S
H585        O586   0.964       .  S
H587        O588   0.965       .  S
C589        N590   1.357       .  A
C589        N594   1.362       .  A
C589       C1525   1.488       .  S
N590        C591   1.355       .  A
C591        N592   1.356       .  A
C591       C1054   1.474       .  S
N592        C593   1.358       .  A
C593        N594   1.361       .  A
C593        C785   1.482       .  S
C595        N596   1.358       .  A
C595        N600   1.362       .  A
C595       C1554   1.475       .  S
N596        C597   1.355       .  A
C597        N598   1.356       .  A
C597        C854   1.483       .  S
N598        C599   1.358       .  A
C599        N600   1.362       .  A
C599        C765   1.485       .  S
C601        N602   1.354       .  A
C601        N606   1.355       .  A
C601        C745   1.465       .  S
N602        C603   1.355       .  A
C603        N604   1.357       .  A
C603       C1674   1.470       .  S
N604        C605   1.358       .  A
C605        N606   1.355       .  A
C605        C814   1.476       .  S
C607        N608   1.359       .  A
C607        N612   1.359       .  A
C607        C825   1.489       .  S
N608        C609   1.360       .  A
C609        N610   1.363       .  A
C609       C1094   1.484       .  S
N610        C611   1.363       .  A
C611        N612   1.360       .  A
C611        C725   1.490       .  S
O613       Zr649   2.431       .  S
O613        C624   1.292       .  A
O614       Zr648   2.435       .  S
O614        C625   1.292       .  A
O615       Zr621   2.443       .  S
O615        C626   1.293       .  A
O616       Zr621   2.450       .  S
O616        C627   1.295       .  A
O617       Zr651   2.441       .  S
O617        C627   1.293       .  A
O618       Zr650   2.430       .  S
O618        C626   1.292       .  A
O619       Zr621   2.419       .  S
O619        C625   1.289       .  A
O620       Zr621   2.448       .  S
O620        C624   1.294       .  A
Zr621       O622   2.339       .  S
Zr621       O623   2.329       .  S
Zr621       O631   2.336       .  S
Zr621       O629   2.349       .  S
O622       Zr648   2.339       .  S
O622       Zr651   2.339       .  S
O623       Zr649   2.329       .  S
O623       Zr650   2.336       .  S
C624       C2985   1.489       .  S
C625       C2245   1.469       .  S
C626       C2305   1.476       .  S
C627        C954   1.490       .  S
H628        O629   0.966       .  S
O629       Zr648   2.335       .  S
O629       Zr650   2.335       .  S
H630        O631   0.965       .  S
O631       Zr649   2.348       .  S
O631       Zr651   2.349       .  S
O632       Zr648   2.434       .  S
O632        C655   1.292       .  A
O633       Zr649   2.451       .  S
O633        C656   1.295       .  A
O634       Zr650   2.450       .  S
O634        C657   1.295       .  A
O635       Zr651   2.441       .  S
O635        C658   1.293       .  A
O636       Zr651   2.443       .  S
O636        C659   1.293       .  A
O637       Zr650   2.419       .  S
O637        C660   1.290       .  A
O638       Zr652   2.430       .  S
O638        C661   1.291       .  A
O639       Zr652   2.419       .  S
O639        C662   1.289       .  A
O640       Zr650   2.442       .  S
O640        C661   1.293       .  A
O641       Zr651   2.449       .  S
O641        C662   1.295       .  A
O642       Zr648   2.447       .  S
O642        C657   1.294       .  A
O643       Zr649   2.441       .  S
O643        C660   1.293       .  A
O644       Zr649   2.414       .  S
O644        C659   1.288       .  A
O645       Zr648   2.437       .  S
O645        C658   1.293       .  A
O646       Zr652   2.422       .  S
O646        C655   1.289       .  A
O647       Zr652   2.430       .  S
O647        C656   1.290       .  A
Zr648       O654   2.340       .  S
Zr648       O666   2.346       .  S
Zr649       O653   2.333       .  S
Zr649       O664   2.336       .  S
Zr650       O654   2.326       .  S
Zr650       O664   2.345       .  S
Zr651       O653   2.335       .  S
Zr651       O666   2.346       .  S
Zr652       O653   2.331       .  S
Zr652       O654   2.335       .  S
Zr652       O666   2.347       .  S
Zr652       O664   2.337       .  S
C655        C754   1.477       .  S
C656        C774   1.480       .  S
C657        C734   1.496       .  S
C658        C994   1.489       .  S
C659       C2934   1.470       .  S
C660       C2454   1.483       .  S
C661       C2414   1.484       .  S
C662        C794   1.485       .  S
H663        O664   0.966       .  S
H665        O666   0.966       .  S
O667       Zr703   2.423       .  S
O667        C678   1.290       .  A
O668       Zr702   2.455       .  S
O668        C679   1.296       .  A
O669       Zr675   2.411       .  S
O669        C680   1.288       .  A
O670       Zr675   2.447       .  S
O670        C681   1.294       .  A
O671       Zr705   2.441       .  S
O671        C681   1.293       .  A
O672       Zr704   2.457       .  S
O672        C680   1.295       .  A
O673       Zr675   2.428       .  S
O673        C679   1.290       .  A
O674       Zr675   2.441       .  S
O674        C678   1.293       .  A
Zr675       O676   2.328       .  S
Zr675       O677   2.333       .  S
Zr675       O685   2.336       .  S
Zr675       O683   2.349       .  S
O676       Zr702   2.337       .  S
O676       Zr705   2.336       .  S
O677       Zr703   2.331       .  S
O677       Zr704   2.332       .  S
C678       C2525   1.480       .  S
C679       C1934   1.490       .  S
C680       C1965   1.487       .  S
C681       C1845   1.486       .  S
H682        O683   0.965       .  S
O683       Zr702   2.338       .  S
O683       Zr704   2.342       .  S
H684        O685   0.963       .  S
O685       Zr703   2.356       .  S
O685       Zr705   2.339       .  S
O686       Zr702   2.423       .  S
O686        C709   1.290       .  A
O687       Zr703   2.446       .  S
O687        C710   1.294       .  A
O688       Zr704   2.442       .  S
O688        C711   1.293       .  A
O689       Zr705   2.429       .  S
O689        C712   1.292       .  A
O690       Zr705   2.442       .  S
O690        C713   1.293       .  A
O691       Zr704   2.416       .  S
O691        C714   1.288       .  A
O692       Zr706   2.453       .  S
O692        C715   1.295       .  A
O693       Zr706   2.443       .  S
O693        C716   1.293       .  A
O694       Zr704   2.438       .  S
O694        C715   1.293       .  A
O695       Zr705   2.425       .  S
O695        C716   1.290       .  A
O696       Zr702   2.447       .  S
O696        C711   1.294       .  A
O697       Zr703   2.464       .  S
O697        C714   1.298       .  A
O698       Zr703   2.443       .  S
O698        C713   1.294       .  A
O699       Zr702   2.442       .  S
O699        C712   1.293       .  A
O700       Zr706   2.430       .  S
O700        C709   1.291       .  A
O701       Zr706   2.437       .  S
O701        C710   1.292       .  A
Zr702       O708   2.345       .  S
Zr702       O720   2.351       .  S
Zr703       O707   2.329       .  S
Zr703       O718   2.338       .  S
Zr704       O708   2.336       .  S
Zr704       O718   2.352       .  S
Zr705       O707   2.335       .  S
Zr705       O720   2.342       .  S
Zr706       O707   2.334       .  S
Zr706       O708   2.345       .  S
Zr706       O720   2.341       .  S
Zr706       O718   2.341       .  S
C709       C1714   1.459       .  S
C710        C874   1.482       .  S
C711       C1654   1.491       .  S
C712       C1914   1.477       .  S
C713       C2494   1.485       .  S
C714       C2374   1.486       .  S
C715       C2334   1.486       .  S
C716        C914   1.480       .  S
H717        O718   0.964       .  S
H719        O720   0.964       .  S
C721        C722   1.406       .  A
C721        C726   1.401       .  A
C721        H731   1.083       .  S
C722        C727   1.496       .  S
C722        C723   1.411       .  A
C723        C724   1.403       .  A
C723        F728   1.357       .  S
C724        C725   1.405       .  A
C724        H729   1.083       .  S
C725        C726   1.411       .  A
C726        F730   1.357       .  S
C727        C732   1.410       .  A
C727        C736   1.405       .  A
C732        C733   1.405       .  A
C732        F737   1.358       .  S
C733        C734   1.410       .  A
C733        H738   1.083       .  S
C734        C735   1.411       .  A
C735        C736   1.399       .  A
C735        F739   1.357       .  S
C736        H740   1.083       .  S
C741        C742   1.403       .  A
C741        C746   1.393       .  A
C741        H751   1.083       .  S
C742        C747   1.474       .  S
C742        C743   1.407       .  A
C743        C744   1.393       .  A
C743        F748   1.358       .  S
C744        C745   1.402       .  A
C744        H749   1.083       .  S
C745        C746   1.404       .  A
C746        F750   1.358       .  S
C747        C752   1.406       .  A
C747        C756   1.400       .  A
C752        C753   1.396       .  A
C752        F757   1.358       .  S
C753        C754   1.406       .  A
C753        H758   1.083       .  S
C754        C755   1.410       .  A
C755        C756   1.391       .  A
C755        F759   1.357       .  S
C756        H760   1.083       .  S
C761        C762   1.401       .  A
C761        C766   1.395       .  A
C761        H771   1.083       .  S
C762        C767   1.484       .  S
C762        C763   1.408       .  A
C763        C764   1.402       .  A
C763        F768   1.357       .  S
C764        C765   1.407       .  A
C764        H769   1.083       .  S
C765        C766   1.411       .  A
C766        F770   1.357       .  S
C767        C772   1.408       .  A
C767        C776   1.404       .  A
C772        C773   1.399       .  A
C772        F777   1.358       .  S
C773        C774   1.404       .  A
C773        H778   1.084       .  S
C774        C775   1.408       .  A
C775        C776   1.400       .  A
C775        F779   1.357       .  S
C776        H780   1.083       .  S
C781        C782   1.404       .  A
C781        C786   1.400       .  A
C781        H791   1.083       .  S
C782        C787   1.480       .  S
C782        C783   1.404       .  A
C783        C784   1.394       .  A
C783        F788   1.358       .  S
C784        C785   1.406       .  A
C784        H789   1.083       .  S
C785        C786   1.410       .  A
C786        F790   1.357       .  S
C787        C792   1.406       .  A
C787        C796   1.401       .  A
C792        C793   1.396       .  A
C792        F797   1.357       .  S
C793        C794   1.406       .  A
C793        H798   1.083       .  S
C794        C795   1.414       .  A
C795        C796   1.397       .  A
C795        F799   1.358       .  S
C796        H800   1.083       .  S
C801        C802   1.403       .  A
C801        C806   1.393       .  A
C801        H811   1.084       .  S
C802        C807   1.472       .  S
C802        C803   1.403       .  A
C803        C804   1.396       .  A
C803        F808   1.357       .  S
C804        C805   1.406       .  A
C804        H809   1.083       .  S
C805        C806   1.406       .  A
C806        F810   1.358       .  S
C807        C812   1.403       .  A
C807        C816   1.402       .  A
C812        C813   1.393       .  A
C812        F817   1.357       .  S
C813        C814   1.405       .  A
C813        H818   1.083       .  S
C814        C815   1.411       .  A
C815        C816   1.396       .  A
C815        F819   1.358       .  S
C816        H820   1.083       .  S
C821        C822   1.404       .  A
C821        C826   1.399       .  A
C821        H831   1.083       .  S
C822        C827   1.491       .  S
C822        C823   1.408       .  A
C823        C824   1.402       .  A
C823        F828   1.357       .  S
C824        C825   1.408       .  A
C824        H829   1.083       .  S
C825        C826   1.410       .  A
C826        F830   1.356       .  S
C827        C832   1.408       .  A
C827        C836   1.405       .  A
C832        C833   1.403       .  A
C832        F837   1.357       .  S
C833        C834   1.407       .  A
C833        H838   1.083       .  S
C834        C835   1.413       .  A
C835        C836   1.401       .  A
C835        F839   1.357       .  S
C836        H840   1.083       .  S
C841        C842   1.405       .  A
C841        C846   1.396       .  A
C841        H851   1.083       .  S
C842        C847   1.483   1_554  S
C842        C843   1.407       .  A
C843        C844   1.399       .  A
C843        F848   1.358       .  S
C844        C845   1.406       .  A
C844        H849   1.083       .  S
C845        C846   1.406       .  A
C846        F850   1.357       .  S
C847        C852   1.406       .  A
C847        C856   1.404       .  A
C852        C853   1.396       .  A
C852        F857   1.358       .  S
C853        C854   1.406       .  A
C853        H858   1.083       .  S
C854        C855   1.411       .  A
C855        C856   1.398       .  A
C855        F859   1.357       .  S
C856        H860   1.083       .  S
C861        C862   1.406       .  A
C861        C866   1.402       .  A
C861        H871   1.083       .  S
C862        C867   1.488       .  S
C862        C863   1.406       .  A
C863        C864   1.397       .  A
C863        F868   1.358       .  S
C864        C865   1.407       .  A
C864        H869   1.083       .  S
C865        C866   1.409       .  A
C866        F870   1.357       .  S
C867        C872   1.408       .  A
C867        C876   1.405       .  A
C872        C873   1.402       .  A
C872        F877   1.357       .  S
C873        C874   1.406       .  A
C873        H878   1.083       .  S
C874        C875   1.407       .  A
C875        C876   1.397       .  A
C875        F879   1.358       .  S
C876        H880   1.083       .  S
C881        C882   1.404       .  A
C881        C886   1.399       .  A
C881        H891   1.083       .  S
C882        C887   1.496       .  S
C882        C883   1.410       .  A
C883        C884   1.403       .  A
C883        F888   1.357       .  S
C884        C885   1.407       .  A
C884        H889   1.083       .  S
C885        C886   1.415       .  A
C886        F890   1.358       .  S
C887        C892   1.411       .  A
C887        C896   1.406       .  A
C892        C893   1.402       .  A
C892        F897   1.357       .  S
C893        C894   1.405       .  A
C893        H898   1.083       .  S
C894        C895   1.410       .  A
C895        C896   1.400       .  A
C895        F899   1.358       .  S
C896        H900   1.083       .  S
C901        C902   1.402       .  A
C901        C906   1.393       .  A
C901        H911   1.083       .  S
C902        C907   1.479       .  S
C902        C903   1.408       .  A
C903        C904   1.399       .  A
C903        F908   1.357       .  S
C904        C905   1.403       .  A
C904        H909   1.083       .  S
C905        C906   1.407       .  A
C906        F910   1.358       .  S
C907        C912   1.406       .  A
C907        C916   1.403       .  A
C912        C913   1.396       .  A
C912        F917   1.358       .  S
C913        C914   1.406       .  A
C913        H918   1.083       .  S
C914        C915   1.410       .  A
C915        C916   1.396       .  A
C915        F919   1.358       .  S
C916        H920   1.083       .  S
C921        C922   1.402       .  A
C921        C926   1.394       .  A
C921        H931   1.083       .  S
C922        C927   1.476       .  S
C922        C923   1.404       .  A
C923        C924   1.395       .  A
C923        F928   1.358       .  S
C924        C925   1.408       .  A
C924        H929   1.083       .  S
C925        C926   1.412       .  A
C926        F930   1.358       .  S
C927        C932   1.405       .  A
C927        C936   1.405       .  A
C932        C933   1.393       .  A
C932        F937   1.357       .  S
C933        C934   1.402       .  A
C933        H938   1.083       .  S
C934        C935   1.405       .  A
C935        C936   1.395       .  A
C935        F939   1.358       .  S
C936        H940   1.083       .  S
C941        C942   1.404       .  A
C941        C946   1.400       .  A
C941        H951   1.083       .  S
C942        C947   1.493       .  S
C942        C943   1.411       .  A
C943        C944   1.402       .  A
C943        F948   1.357       .  S
C944        C945   1.405       .  A
C944        H949   1.083       .  S
C945        C946   1.412       .  A
C946        F950   1.358       .  S
C947        C952   1.410       .  A
C947        C956   1.406       .  A
C952        C953   1.401       .  A
C952        F957   1.357       .  S
C953        C954   1.407       .  A
C953        H958   1.083       .  S
C954        C955   1.410       .  A
C955        C956   1.400       .  A
C955        F959   1.357       .  S
C956        H960   1.083       .  S
C961        C962   1.408       .  A
C961        C966   1.400       .  A
C961        H971   1.082       .  S
C962        C967   1.489       .  S
C962        C963   1.407       .  A
C963        C964   1.395       .  A
C963        F968   1.358       .  S
C964        C965   1.407       .  A
C964        H969   1.083       .  S
C965        C966   1.406       .  A
C966        F970   1.357       .  S
C967        C972   1.407       .  A
C967        C976   1.409       .  A
C972        C973   1.393       .  A
C972        F977   1.357       .  S
C973        C974   1.406       .  A
C973        H978   1.083       .  S
C974        C975   1.408       .  A
C975        C976   1.401       .  A
C975        F979   1.358       .  S
C976        H980   1.083       .  S
C981        C982   1.404       .  A
C981        C986   1.398       .  A
C981        H991   1.083       .  S
C982        C987   1.481       .  S
C982        C983   1.405       .  A
C983        C984   1.395       .  A
C983        F988   1.357       .  S
C984        C985   1.405       .  A
C984        H989   1.083       .  S
C985        C986   1.411       .  A
C986        F990   1.358       .  S
C987        C992   1.404       .  A
C987        C996   1.403       .  A
C992        C993   1.398       .  A
C992        F997   1.358       .  S
C993        C994   1.409       .  A
C993        H998   1.083       .  S
C994        C995   1.412       .  A
C995        C996   1.397       .  A
C995        F999   1.357       .  S
C996       H1000   1.083       .  S
C1001      C1002   1.404       .  A
C1001      C1006   1.396       .  A
C1001      H1011   1.083       .  S
C1002      C1007   1.471       .  S
C1002      C1003   1.401       .  A
C1003      C1004   1.392       .  A
C1003      F1008   1.358       .  S
C1004      C1005   1.408       .  A
C1004      H1009   1.083       .  S
C1005      C1006   1.406       .  A
C1006      F1010   1.357       .  S
C1007      C1012   1.400       .  A
C1007      C1016   1.403       .  A
C1012      C1013   1.390       .  A
C1012      F1017   1.358       .  S
C1013      C1014   1.406       .  A
C1013      H1018   1.083       .  S
C1014      C1015   1.410       .  A
C1015      C1016   1.398       .  A
C1015      F1019   1.358       .  S
C1016      H1020   1.083       .  S
C1021      C1022   1.408       .  A
C1021      C1026   1.406       .  A
C1021      H1031   1.083       .  S
C1022      C1027   1.490       .  S
C1022      C1023   1.404       .  A
C1023      C1024   1.395       .  A
C1023      F1028   1.357       .  S
C1024      C1025   1.407       .  A
C1024      H1029   1.083       .  S
C1025      C1026   1.410       .  A
C1026      F1030   1.358       .  S
C1027      C1032   1.405       .  A
C1027      C1036   1.408       .  A
C1032      C1033   1.399       .  A
C1032      F1037   1.358       .  S
C1033      C1034   1.410       .  A
C1033      H1038   1.083       .  S
C1034      C1035   1.407       .  A
C1035      C1036   1.403       .  A
C1035      F1039   1.357       .  S
C1036      H1040   1.083       .  S
C1041      C1042   1.404       .  A
C1041      C1046   1.399       .  A
C1041      H1051   1.083       .  S
C1042      C1047   1.476       .  S
C1042      C1043   1.403       .  A
C1043      C1044   1.392       .  A
C1043      F1048   1.358       .  S
C1044      C1045   1.407       .  A
C1044      H1049   1.083       .  S
C1045      C1046   1.408       .  A
C1046      F1050   1.357       .  S
C1047      C1052   1.405       .  A
C1047      C1056   1.403       .  A
C1052      C1053   1.397       .  A
C1052      F1057   1.358       .  S
C1053      C1054   1.405       .  A
C1053      H1058   1.083       .  S
C1054      C1055   1.407       .  A
C1055      C1056   1.395       .  A
C1055      F1059   1.357       .  S
C1056      H1060   1.084       .  S
C1061      C1062   1.405       .  A
C1061      C1066   1.398       .  A
C1061      H1071   1.083       .  S
C1062      C1067   1.477       .  S
C1062      C1063   1.404       .  A
C1063      C1064   1.393       .  A
C1063      F1068   1.358       .  S
C1064      C1065   1.406       .  A
C1064      H1069   1.083       .  S
C1065      C1066   1.407       .  A
C1066      F1070   1.357       .  S
C1067      C1072   1.405       .  A
C1067      C1076   1.402       .  A
C1072      C1073   1.397       .  A
C1072      F1077   1.358       .  S
C1073      C1074   1.408       .  A
C1073      H1078   1.083       .  S
C1074      C1075   1.411       .  A
C1075      C1076   1.393       .  A
C1075      F1079   1.358       .  S
C1076      H1080   1.083       .  S
C1081      C1082   1.409       .  A
C1081      C1086   1.403       .  A
C1081      H1091   1.083       .  S
C1082      C1087   1.491       .  S
C1082      C1083   1.405       .  A
C1083      C1084   1.394       .  A
C1083      F1088   1.357       .  S
C1084      C1085   1.408       .  A
C1084      H1089   1.083       .  S
C1085      C1086   1.409       .  A
C1086      F1090   1.357       .  S
C1087      C1092   1.408   1_565  A
C1087      C1096   1.408       .  A
C1092      C1093   1.401       .  A
C1092      F1097   1.358   1_545  S
C1093      C1094   1.406       .  A
C1093      H1098   1.083       .  S
C1094      C1095   1.406       .  A
C1095      C1096   1.399   1_545  A
C1095      F1099   1.357       .  S
C1096      H1100   1.083       .  S
C1101      C1102   1.409       .  A
C1101      C1106   1.400       .  A
C1101      H1111   1.083       .  S
C1102      C1107   1.484       .  S
C1102      C1103   1.406       .  A
C1103      C1104   1.392       .  A
C1103      F1108   1.357       .  S
C1104      C1105   1.404       .  A
C1104      H1109   1.083       .  S
C1105      C1106   1.405       .  A
C1106      F1110   1.357       .  S
C1107      C1112   1.405       .  A
C1107      C1116   1.407       .  A
C1112      C1113   1.392       .  A
C1112      F1117   1.357       .  S
C1113      C1114   1.407       .  A
C1113      H1118   1.083       .  S
C1114      C1115   1.409       .  A
C1115      C1116   1.399       .  A
C1115      F1119   1.358       .  S
C1116      H1120   1.083       .  S
C1121      C1122   1.403       .  A
C1121      C1126   1.395       .  A
C1121      H1131   1.083       .  S
C1122      C1127   1.481       .  S
C1122      C1123   1.406       .  A
C1123      C1124   1.395       .  A
C1123      F1128   1.357       .  S
C1124      C1125   1.405       .  A
C1124      H1129   1.083       .  S
C1125      C1126   1.411       .  A
C1126      F1130   1.358       .  S
C1127      C1132   1.407       .  A
C1127      C1136   1.405       .  A
C1132      C1133   1.393       .  A
C1132      F1137   1.358       .  S
C1133      C1134   1.403       .  A
C1133      H1138   1.083       .  S
C1134      C1135   1.408       .  A
C1135      C1136   1.398       .  A
C1135      F1139   1.358       .  S
C1136      H1140   1.083       .  S
C1141      C1142   1.401       .  A
C1141      C1146   1.394       .  A
C1141      H1151   1.083       .  S
C1142      C1147   1.474       .  S
C1142      C1143   1.404       .  A
C1143      C1144   1.395       .  A
C1143      F1148   1.358       .  S
C1144      C1145   1.409       .  A
C1144      H1149   1.083       .  S
C1145      C1146   1.410       .  A
C1146      F1150   1.357       .  S
C1147      C1152   1.407       .  A
C1147      C1156   1.402       .  A
C1152      C1153   1.397       .  A
C1152      F1157   1.358       .  S
C1153      C1154   1.401       .  A
C1153      H1158   1.084       .  S
C1154      C1155   1.405       .  A
C1155      C1156   1.395       .  A
C1155      F1159   1.358       .  S
C1156      H1160   1.083       .  S
C1161      C1162   1.402       .  A
C1161      C1166   1.396       .  A
C1161      H1171   1.083       .  S
C1162      C1167   1.485       .  S
C1162      C1163   1.407       .  A
C1163      C1164   1.401       .  A
C1163      F1168   1.357       .  S
C1164      C1165   1.408       .  A
C1164      H1169   1.083       .  S
C1165      C1166   1.413       .  A
C1166      F1170   1.358       .  S
C1167      C1172   1.407       .  A
C1167      C1176   1.406       .  A
C1172      C1173   1.397       .  A
C1172      F1177   1.357       .  S
C1173      C1174   1.403       .  A
C1173      H1178   1.083       .  S
C1174      C1175   1.408       .  A
C1175      C1176   1.401       .  A
C1175      F1179   1.358       .  S
C1176      H1180   1.083       .  S
C1181      C1182   1.403       .  A
C1181      C1186   1.397       .  A
C1181      H1191   1.083       .  S
C1182      C1187   1.488   1_554  S
C1182      C1183   1.409       .  A
C1183      C1184   1.404       .  A
C1183      F1188   1.358       .  S
C1184      C1185   1.408       .  A
C1184      H1189   1.083       .  S
C1185      C1186   1.410       .  A
C1186      F1190   1.357       .  S
C1187      C1192   1.408       .  A
C1187      C1196   1.403       .  A
C1192      C1193   1.401       .  A
C1192      F1197   1.358       .  S
C1193      C1194   1.407       .  A
C1193      H1198   1.083       .  S
C1194      C1195   1.413       .  A
C1195      C1196   1.399       .  A
C1195      F1199   1.357       .  S
C1196      H1200   1.083       .  S
C1201      C1202   1.405       .  A
C1201      C1206   1.402       .  A
C1201      H1211   1.083       .  S
C1202      C1207   1.484       .  S
C1202      C1203   1.405       .  A
C1203      C1204   1.396       .  A
C1203      F1208   1.357       .  S
C1204      C1205   1.406       .  A
C1204      H1209   1.083       .  S
C1205      C1206   1.412       .  A
C1206      F1210   1.358       .  S
C1207      C1212   1.407       .  A
C1207      C1216   1.404       .  A
C1212      C1213   1.402       .  A
C1212      F1217   1.358       .  S
C1213      C1214   1.406       .  A
C1213      H1218   1.083       .  S
C1214      C1215   1.406       .  A
C1215      C1216   1.399       .  A
C1215      F1219   1.357       .  S
C1216      H1220   1.083       .  S
C1221      C1222   1.404       .  A
C1221      C1226   1.399       .  A
C1221      H1231   1.083       .  S
C1222      C1227   1.475       .  S
C1222      C1223   1.404       .  A
C1223      C1224   1.391       .  A
C1223      F1228   1.358       .  S
C1224      C1225   1.405       .  A
C1224      H1229   1.083       .  S
C1225      C1226   1.408       .  A
C1226      F1230   1.357       .  S
C1227      C1232   1.404       .  A
C1227      C1236   1.402       .  A
C1232      C1233   1.396       .  A
C1232      F1237   1.357       .  S
C1233      C1234   1.404       .  A
C1233      H1238   1.083       .  S
C1234      C1235   1.411       .  A
C1235      C1236   1.396       .  A
C1235      F1239   1.358       .  S
C1236      H1240   1.084       .  S
C1241      C1242   1.404       .  A
C1241      C1246   1.397       .  A
C1241      H1251   1.083       .  S
C1242      C1247   1.477       .  S
C1242      C1243   1.404       .  A
C1243      C1244   1.394       .  A
C1243      F1248   1.358       .  S
C1244      C1245   1.407       .  A
C1244      H1249   1.083       .  S
C1245      C1246   1.409       .  A
C1246      F1250   1.357       .  S
C1247      C1252   1.406       .  A
C1247      C1256   1.404       .  A
C1252      C1253   1.396       .  A
C1252      F1257   1.357       .  S
C1253      C1254   1.402       .  A
C1253      H1258   1.083       .  S
C1254      C1255   1.406       .  A
C1255      C1256   1.395       .  A
C1255      F1259   1.358       .  S
C1256      H1260   1.083       .  S
C1261      C1262   1.407       .  A
C1261      C1266   1.399       .  A
C1261      H1271   1.083       .  S
C1262      C1267   1.486       .  S
C1262      C1263   1.406       .  A
C1263      C1264   1.396       .  A
C1263      F1268   1.357       .  S
C1264      C1265   1.406       .  A
C1264      H1269   1.083       .  S
C1265      C1266   1.409       .  A
C1266      F1270   1.358       .  S
C1267      C1272   1.405       .  A
C1267      C1276   1.407       .  A
C1272      C1273   1.396       .  A
C1272      F1277   1.358       .  S
C1273      C1274   1.408       .  A
C1273      H1278   1.083       .  S
C1274      C1275   1.408       .  A
C1275      C1276   1.400       .  A
C1275      F1279   1.357       .  S
C1276      H1280   1.083       .  S
C1281      C1282   1.408       .  A
C1281      C1286   1.404       .  A
C1281      H1291   1.083       .  S
C1282      C1287   1.494       .  S
C1282      C1283   1.407       .  A
C1283      C1284   1.401       .  A
C1283      F1288   1.357       .  S
C1284      C1285   1.406       .  A
C1284      H1289   1.083       .  S
C1285      C1286   1.408       .  A
C1286      F1290   1.358       .  S
C1287      C1292   1.405       .  A
C1287      C1296   1.408       .  A
C1292      C1293   1.400       .  A
C1292      F1297   1.358       .  S
C1293      C1294   1.411       .  A
C1293      H1298   1.083       .  S
C1294      C1295   1.412       .  A
C1295      C1296   1.406       .  A
C1295      F1299   1.357       .  S
C1296      H1300   1.083       .  S
C1301      C1302   1.404       .  A
C1301      C1306   1.394       .  A
C1301      H1311   1.083       .  S
C1302      C1307   1.483       .  S
C1302      C1303   1.408       .  A
C1303      C1304   1.400       .  A
C1303      F1308   1.357       .  S
C1304      C1305   1.405       .  A
C1304      H1309   1.083       .  S
C1305      C1306   1.407       .  A
C1306      F1310   1.357       .  S
C1307      C1312   1.408       .  A
C1307      C1316   1.403       .  A
C1312      C1313   1.397       .  A
C1312      F1317   1.357       .  S
C1313      C1314   1.404       .  A
C1313      H1318   1.083       .  S
C1314      C1315   1.410       .  A
C1315      C1316   1.396       .  A
C1315      F1319   1.357       .  S
C1316      H1320   1.083       .  S
C1321      C1322   1.404       .  A
C1321      C1326   1.399       .  A
C1321      H1331   1.083       .  S
C1322      C1327   1.485       .  S
C1322      C1323   1.408       .  A
C1323      C1324   1.397       .  A
C1323      F1328   1.357       .  S
C1324      C1325   1.403       .  A
C1324      H1329   1.083       .  S
C1325      C1326   1.411       .  A
C1326      F1330   1.358       .  S
C1327      C1332   1.407       .  A
C1327      C1336   1.403       .  A
C1332      C1333   1.398       .  A
C1332      F1337   1.357       .  S
C1333      C1334   1.406       .  A
C1333      H1338   1.083       .  S
C1334      C1335   1.413       .  A
C1335      C1336   1.398       .  A
C1335      F1339   1.358       .  S
C1336      H1340   1.083       .  S
C1341      C1342   1.401       .  A
C1341      C1346   1.397       .  A
C1341      H1351   1.084       .  S
C1342      C1347   1.470       .  S
C1342      C1343   1.401       .  A
C1343      C1344   1.393       .  A
C1343      F1348   1.358       .  S
C1344      C1345   1.408       .  A
C1344      H1349   1.083       .  S
C1345      C1346   1.412       .  A
C1346      F1350   1.357       .  S
C1347      C1352   1.403       .  A
C1347      C1356   1.401       .  A
C1352      C1353   1.395       .  A
C1352      F1357   1.357       .  S
C1353      C1354   1.405       .  A
C1353      H1358   1.083       .  S
C1354      C1355   1.408       .  A
C1355      C1356   1.393       .  A
C1355      F1359   1.358       .  S
C1356      H1360   1.084       .  S
C1361      C1362   1.405       .  A
C1361      C1366   1.393       .  A
C1361      H1371   1.083       .  S
C1362      C1367   1.484       .  S
C1362      C1363   1.410       .  A
C1363      C1364   1.397       .  A
C1363      F1368   1.357       .  S
C1364      C1365   1.402       .  A
C1364      H1369   1.083       .  S
C1365      C1366   1.405       .  A
C1366      F1370   1.358       .  S
C1367      C1372   1.410       .  A
C1367      C1376   1.406       .  A
C1372      C1373   1.394       .  A
C1372      F1377   1.358       .  S
C1373      C1374   1.399       .  A
C1373      H1378   1.082       .  S
C1374      C1375   1.406       .  A
C1375      C1376   1.397       .  A
C1375      F1379   1.358       .  S
C1376      H1380   1.083       .  S
C1381      C1382   1.407       .  A
C1381      C1386   1.399       .  A
C1381      H1391   1.083       .  S
C1382      C1387   1.493       .  S
C1382      C1383   1.410       .  A
C1383      C1384   1.401       .  A
C1383      F1388   1.357       .  S
C1384      C1385   1.405       .  A
C1384      H1389   1.083       .  S
C1385      C1386   1.408       .  A
C1386      F1390   1.358       .  S
C1387      C1392   1.408       .  A
C1387      C1396   1.407       .  A
C1392      C1393   1.398       .  A
C1392      F1397   1.357       .  S
C1393      C1394   1.407       .  A
C1393      H1398   1.083       .  S
C1394      C1395   1.411       .  A
C1395      C1396   1.402       .  A
C1395      F1399   1.357       .  S
C1396      H1400   1.083       .  S
C1401      C1402   1.406   1_655  A
C1401      C1406   1.401       .  A
C1401      H1411   1.083   1_655  S
C1402      C1407   1.483       .  S
C1402      C1403   1.406   1_455  A
C1403      C1404   1.394       .  A
C1403      F1408   1.357   1_655  S
C1404      C1405   1.403       .  A
C1404      H1409   1.083       .  S
C1405      C1406   1.410       .  A
C1406      F1410   1.358       .  S
C1407      C1412   1.405       .  A
C1407      C1416   1.405       .  A
C1412      C1413   1.399       .  A
C1412      F1417   1.358       .  S
C1413      C1414   1.409       .  A
C1413      H1418   1.083       .  S
C1414      C1415   1.407       .  A
C1415      C1416   1.397       .  A
C1415      F1419   1.357       .  S
C1416      H1420   1.083       .  S
C1421      C1422   1.406       .  A
C1421      C1426   1.402       .  A
C1421      H1431   1.083       .  S
C1422      C1427   1.489       .  S
C1422      C1423   1.407       .  A
C1423      C1424   1.395       .  A
C1423      F1428   1.357       .  S
C1424      C1425   1.407       .  A
C1424      H1429   1.083       .  S
C1425      C1426   1.411       .  A
C1426      F1430   1.357       .  S
C1427      C1432   1.410       .  A
C1427      C1436   1.406       .  A
C1432      C1433   1.402       .  A
C1432      F1437   1.357       .  S
C1433      C1434   1.403       .  A
C1433      H1438   1.083       .  S
C1434      C1435   1.406       .  A
C1435      C1436   1.396       .  A
C1435      F1439   1.358       .  S
C1436      H1440   1.083       .  S
C1441      C1442   1.402       .  A
C1441      C1446   1.398       .  A
C1441      H1451   1.083       .  S
C1442      C1447   1.477       .  S
C1442      C1443   1.406       .  A
C1443      C1444   1.399       .  A
C1443      F1448   1.358       .  S
C1444      C1445   1.403       .  A
C1444      H1449   1.083       .  S
C1445      C1446   1.407       .  A
C1446      F1450   1.357       .  S
C1447      C1452   1.405       .  A
C1447      C1456   1.401       .  A
C1452      C1453   1.400       .  A
C1452      F1457   1.357       .  S
C1453      C1454   1.407       .  A
C1453      H1458   1.083       .  S
C1454      C1455   1.409       .  A
C1455      C1456   1.396       .  A
C1455      F1459   1.357       .  S
C1456      H1460   1.084       .  S
C1461      C1462   1.405       .  A
C1461      C1466   1.400       .  A
C1461      H1471   1.083       .  S
C1462      C1467   1.494       .  S
C1462      C1463   1.409       .  A
C1463      C1464   1.403       .  A
C1463      F1468   1.358       .  S
C1464      C1465   1.409       .  A
C1464      H1469   1.083       .  S
C1465      C1466   1.412       .  A
C1466      F1470   1.357       .  S
C1467      C1472   1.410       .  A
C1467      C1476   1.406       .  A
C1472      C1473   1.403       .  A
C1472      F1477   1.358       .  S
C1473      C1474   1.406       .  A
C1473      H1478   1.083       .  S
C1474      C1475   1.408       .  A
C1475      C1476   1.401       .  A
C1475      F1479   1.357       .  S
C1476      H1480   1.083       .  S
C1481      C1482   1.398       .  A
C1481      C1486   1.386       .  A
C1481      H1491   1.084       .  S
C1482      C1487   1.466       .  S
C1482      C1483   1.405       .  A
C1483      C1484   1.399       .  A
C1483      F1488   1.357       .  S
C1484      C1485   1.404       .  A
C1484      H1489   1.083       .  S
C1485      C1486   1.406       .  A
C1486      F1490   1.357       .  S
C1487      C1492   1.402       .  A
C1487      C1496   1.402       .  A
C1492      C1493   1.391       .  A
C1492      F1497   1.358       .  S
C1493      C1494   1.405       .  A
C1493      H1498   1.083       .  S
C1494      C1495   1.409       .  A
C1495      C1496   1.394       .  A
C1495      F1499   1.358       .  S
C1496      H1500   1.084       .  S
C1501      C1502   1.402       .  A
C1501      C1506   1.392       .  A
C1501      H1511   1.083       .  S
C1502      C1507   1.481       .  S
C1502      C1503   1.408       .  A
C1503      C1504   1.397       .  A
C1503      F1508   1.357       .  S
C1504      C1505   1.404       .  A
C1504      H1509   1.083       .  S
C1505      C1506   1.412       .  A
C1506      F1510   1.358       .  S
C1507      C1512   1.409       .  A
C1507      C1516   1.405       .  A
C1512      C1513   1.395       .  A
C1512      F1517   1.358       .  S
C1513      C1514   1.403       .  A
C1513      H1518   1.084       .  S
C1514      C1515   1.405       .  A
C1515      C1516   1.396       .  A
C1515      F1519   1.358       .  S
C1516      H1520   1.083       .  S
C1521      C1522   1.403       .  A
C1521      C1526   1.399       .  A
C1521      H1531   1.083       .  S
C1522      C1527   1.485       .  S
C1522      C1523   1.407       .  A
C1523      C1524   1.397       .  A
C1523      F1528   1.357       .  S
C1524      C1525   1.406       .  A
C1524      H1529   1.083       .  S
C1525      C1526   1.414       .  A
C1526      F1530   1.358       .  S
C1527      C1532   1.407       .  A
C1527      C1536   1.403       .  A
C1532      C1533   1.400       .  A
C1532      F1537   1.357       .  S
C1533      C1534   1.409       .  A
C1533      H1538   1.083       .  S
C1534      C1535   1.412       .  A
C1535      C1536   1.396       .  A
C1535      F1539   1.357       .  S
C1536      H1540   1.083       .  S
C1541      C1542   1.406       .  A
C1541      C1546   1.399       .  A
C1541      H1551   1.083       .  S
C1542      C1547   1.483       .  S
C1542      C1543   1.403       .  A
C1543      C1544   1.395       .  A
C1543      F1548   1.358       .  S
C1544      C1545   1.410       .  A
C1544      H1549   1.083       .  S
C1545      C1546   1.410       .  A
C1546      F1550   1.357       .  S
C1547      C1552   1.406       .  A
C1547      C1556   1.406       .  A
C1552      C1553   1.396       .  A
C1552      F1557   1.358       .  S
C1553      C1554   1.403       .  A
C1553      H1558   1.083       .  S
C1554      C1555   1.406       .  A
C1555      C1556   1.400       .  A
C1555      F1559   1.357       .  S
C1556      H1560   1.083       .  S
C1561      C1562   1.405       .  A
C1561      C1566   1.403       .  A
C1561      H1571   1.083       .  S
C1562      C1567   1.481       .  S
C1562      C1563   1.404       .  A
C1563      C1564   1.397       .  A
C1563      F1568   1.358       .  S
C1564      C1565   1.405       .  A
C1564      H1569   1.084       .  S
C1565      C1566   1.408       .  A
C1566      F1570   1.357       .  S
C1567      C1572   1.405       .  A
C1567      C1576   1.402       .  A
C1572      C1573   1.401       .  A
C1572      F1577   1.357       .  S
C1573      C1574   1.408       .  A
C1573      H1578   1.083       .  S
C1574      C1575   1.410       .  A
C1575      C1576   1.398       .  A
C1575      F1579   1.357       .  S
C1576      H1580   1.083       .  S
C1581      C1582   1.405       .  A
C1581      C1586   1.401       .  A
C1581      H1591   1.083       .  S
C1582      C1587   1.483       .  S
C1582      C1583   1.405       .  A
C1583      C1584   1.397       .  A
C1583      F1588   1.358       .  S
C1584      C1585   1.406       .  A
C1584      H1589   1.083       .  S
C1585      C1586   1.409       .  A
C1586      F1590   1.357       .  S
C1587      C1592   1.406       .  A
C1587      C1596   1.404       .  A
C1592      C1593   1.398       .  A
C1592      F1597   1.357       .  S
C1593      C1594   1.406       .  A
C1593      H1598   1.083       .  S
C1594      C1595   1.410       .  A
C1595      C1596   1.399       .  A
C1595      F1599   1.358       .  S
C1596      H1600   1.083       .  S
C1601      C1602   1.405       .  A
C1601      C1606   1.401       .  A
C1601      H1611   1.083       .  S
C1602      C1607   1.489       .  S
C1602      C1603   1.408       .  A
C1603      C1604   1.400       .  A
C1603      F1608   1.357       .  S
C1604      C1605   1.405       .  A
C1604      H1609   1.083       .  S
C1605      C1606   1.409       .  A
C1606      F1610   1.358       .  S
C1607      C1612   1.408   1_565  A
C1607      C1616   1.405   1_565  A
C1612      C1613   1.401       .  A
C1612      F1617   1.357   1_545  S
C1613      C1614   1.405       .  A
C1613      H1618   1.083       .  S
C1614      C1615   1.410       .  A
C1615      C1616   1.400       .  A
C1615      F1619   1.358       .  S
C1616      H1620   1.083   1_545  S
C1621      C1622   1.406       .  A
C1621      C1626   1.400       .  A
C1621      H1631   1.083       .  S
C1622      C1627   1.487       .  S
C1622      C1623   1.408       .  A
C1623      C1624   1.396       .  A
C1623      F1628   1.357       .  S
C1624      C1625   1.404       .  A
C1624      H1629   1.083       .  S
C1625      C1626   1.408       .  A
C1626      F1630   1.358       .  S
C1627      C1632   1.409       .  A
C1627      C1636   1.403       .  A
C1632      C1633   1.400       .  A
C1632      F1637   1.357       .  S
C1633      C1634   1.407       .  A
C1633      H1638   1.083       .  S
C1634      C1635   1.413       .  A
C1635      C1636   1.396       .  A
C1635      F1639   1.358       .  S
C1636      H1640   1.083       .  S
C1641      C1642   1.407       .  A
C1641      C1646   1.401       .  A
C1641      H1651   1.083       .  S
C1642      C1647   1.495       .  S
C1642      C1643   1.409       .  A
C1643      C1644   1.400       .  A
C1643      F1648   1.357       .  S
C1644      C1645   1.408       .  A
C1644      H1649   1.083       .  S
C1645      C1646   1.409       .  A
C1646      F1650   1.357       .  S
C1647      C1652   1.410       .  A
C1647      C1656   1.406       .  A
C1652      C1653   1.400       .  A
C1652      F1657   1.358       .  S
C1653      C1654   1.407       .  A
C1653      H1658   1.083       .  S
C1654      C1655   1.410       .  A
C1655      C1656   1.401       .  A
C1655      F1659   1.357       .  S
C1656      H1660   1.083       .  S
C1661      C1662   1.403       .  A
C1661      C1666   1.393       .  A
C1661      H1671   1.083       .  S
C1662      C1667   1.477       .  S
C1662      C1663   1.407       .  A
C1663      C1664   1.392       .  A
C1663      F1668   1.358       .  S
C1664      C1665   1.403       .  A
C1664      H1669   1.083       .  S
C1665      C1666   1.409       .  A
C1666      F1670   1.358       .  S
C1667      C1672   1.407       .  A
C1667      C1676   1.404       .  A
C1672      C1673   1.392       .  A
C1672      F1677   1.358       .  S
C1673      C1674   1.403       .  A
C1673      H1678   1.083       .  S
C1674      C1675   1.405       .  A
C1675      C1676   1.394       .  A
C1675      F1679   1.357       .  S
C1676      H1680   1.083       .  S
C1681      C1682   1.401       .  A
C1681      C1686   1.390       .  A
C1681      H1691   1.084       .  S
C1682      C1687   1.470       .  S
C1682      C1683   1.404       .  A
C1683      C1684   1.395       .  A
C1683      F1688   1.358       .  S
C1684      C1685   1.406       .  A
C1684      H1689   1.083       .  S
C1685      C1686   1.409       .  A
C1686      F1690   1.358       .  S
C1687      C1692   1.404       .  A
C1687      C1696   1.402       .  A
C1692      C1693   1.390       .  A
C1692      F1697   1.358       .  S
C1693      C1694   1.403       .  A
C1693      H1698   1.083       .  S
C1694      C1695   1.407       .  A
C1695      C1696   1.395       .  A
C1695      F1699   1.358       .  S
C1696      H1700   1.083       .  S
C1701      C1702   1.400       .  A
C1701      C1706   1.391       .  A
C1701      H1711   1.084       .  S
C1702      C1707   1.468       .  S
C1702      C1703   1.404       .  A
C1703      C1704   1.393       .  A
C1703      F1708   1.358       .  S
C1704      C1705   1.406       .  A
C1704      H1709   1.083       .  S
C1705      C1706   1.410       .  A
C1706      F1710   1.357       .  S
C1707      C1712   1.406       .  A
C1707      C1716   1.403       .  A
C1712      C1713   1.391       .  A
C1712      F1717   1.358       .  S
C1713      C1714   1.399       .  A
C1713      H1718   1.084       .  S
C1714      C1715   1.404       .  A
C1715      C1716   1.394       .  A
C1715      F1719   1.358       .  S
C1716      H1720   1.083       .  S
C1721      C1722   1.400       .  A
C1721      C1726   1.389       .  A
C1721      H1731   1.083       .  S
C1722      C1727   1.476       .  S
C1722      C1723   1.407       .  A
C1723      C1724   1.400       .  A
C1723      F1728   1.358       .  S
C1724      C1725   1.405       .  A
C1724      H1729   1.083       .  S
C1725      C1726   1.410       .  A
C1726      F1730   1.358       .  S
C1727      C1732   1.406       .  A
C1727      C1736   1.402       .  A
C1732      C1733   1.394       .  A
C1732      F1737   1.358       .  S
C1733      C1734   1.406       .  A
C1733      H1738   1.083       .  S
C1734      C1735   1.409       .  A
C1735      C1736   1.395       .  A
C1735      F1739   1.357       .  S
C1736      H1740   1.083       .  S
C1741      C1742   1.403       .  A
C1741      C1746   1.400       .  A
C1741      H1751   1.083       .  S
C1742      C1747   1.485       .  S
C1742      C1743   1.405       .  A
C1743      C1744   1.401       .  A
C1743      F1748   1.358       .  S
C1744      C1745   1.409       .  A
C1744      H1749   1.083       .  S
C1745      C1746   1.411       .  A
C1746      F1750   1.357       .  S
C1747      C1752   1.407       .  A
C1747      C1756   1.404       .  A
C1752      C1753   1.400       .  A
C1752      F1757   1.357       .  S
C1753      C1754   1.404       .  A
C1753      H1758   1.083       .  S
C1754      C1755   1.409       .  A
C1755      C1756   1.401       .  A
C1755      F1759   1.357       .  S
C1756      H1760   1.083       .  S
C1761      C1762   1.400       .  A
C1761      C1766   1.390       .  A
C1761      H1771   1.084       .  S
C1762      C1767   1.466       .  S
C1762      C1763   1.402       .  A
C1763      C1764   1.393       .  A
C1763      F1768   1.357       .  S
C1764      C1765   1.405       .  A
C1764      H1769   1.083       .  S
C1765      C1766   1.408       .  A
C1766      F1770   1.357       .  S
C1767      C1772   1.401       .  A
C1767      C1776   1.402       .  A
C1772      C1773   1.388       .  A
C1772      F1777   1.358       .  S
C1773      C1774   1.405       .  A
C1773      H1778   1.083       .  S
C1774      C1775   1.409       .  A
C1775      C1776   1.397       .  A
C1775      F1779   1.358       .  S
C1776      H1780   1.083       .  S
C1781      C1782   1.405       .  A
C1781      C1786   1.401       .  A
C1781      H1791   1.083       .  S
C1782      C1787   1.487       .  S
C1782      C1783   1.405       .  A
C1783      C1784   1.401       .  A
C1783      F1788   1.358       .  S
C1784      C1785   1.408       .  A
C1784      H1789   1.083       .  S
C1785      C1786   1.409       .  A
C1786      F1790   1.357       .  S
C1787      C1792   1.405       .  A
C1787      C1796   1.406       .  A
C1792      C1793   1.398       .  A
C1792      F1797   1.357       .  S
C1793      C1794   1.407       .  A
C1793      H1798   1.083       .  S
C1794      C1795   1.410       .  A
C1795      C1796   1.403       .  A
C1795      F1799   1.358       .  S
C1796      H1800   1.083       .  S
C1801      C1802   1.409   1_655  A
C1801      C1806   1.401       .  A
C1801      H1811   1.083   1_655  S
C1802      C1807   1.494       .  S
C1802      C1803   1.408   1_455  A
C1803      C1804   1.399       .  A
C1803      F1808   1.357   1_655  S
C1804      C1805   1.408       .  A
C1804      H1809   1.083       .  S
C1805      C1806   1.406       .  A
C1806      F1810   1.357       .  S
C1807      C1812   1.407       .  A
C1807      C1816   1.408       .  A
C1812      C1813   1.397       .  A
C1812      F1817   1.357       .  S
C1813      C1814   1.406       .  A
C1813      H1818   1.083       .  S
C1814      C1815   1.411       .  A
C1815      C1816   1.404       .  A
C1815      F1819   1.357       .  S
C1816      H1820   1.083       .  S
C1821      C1822   1.409       .  A
C1821      C1826   1.405       .  A
C1821      H1831   1.083       .  S
C1822      C1827   1.498       .  S
C1822      C1823   1.409       .  A
C1823      C1824   1.403       .  A
C1823      F1828   1.358       .  S
C1824      C1825   1.408       .  A
C1824      H1829   1.083       .  S
C1825      C1826   1.408       .  A
C1826      F1830   1.357       .  S
C1827      C1832   1.407       .  A
C1827      C1836   1.409       .  A
C1832      C1833   1.399       .  A
C1832      F1837   1.357       .  S
C1833      C1834   1.408       .  A
C1833      H1838   1.083       .  S
C1834      C1835   1.411       .  A
C1835      C1836   1.406       .  A
C1835      F1839   1.358       .  S
C1836      H1840   1.083       .  S
C1841      C1842   1.407       .  A
C1841      C1846   1.402       .  A
C1841      H1851   1.083       .  S
C1842      C1847   1.496       .  S
C1842      C1843   1.411       .  A
C1843      C1844   1.401       .  A
C1843      F1848   1.358       .  S
C1844      C1845   1.406       .  A
C1844      H1849   1.084       .  S
C1845      C1846   1.408       .  A
C1846      F1850   1.357       .  S
C1847      C1852   1.410       .  A
C1847      C1856   1.404       .  A
C1852      C1853   1.404       .  A
C1852      F1857   1.357       .  S
C1853      C1854   1.407       .  A
C1853      H1858   1.083       .  S
C1854      C1855   1.413       .  A
C1855      C1856   1.400       .  A
C1855      F1859   1.357       .  S
C1856      H1860   1.083       .  S
C1861      C1862   1.402       .  A
C1861      C1866   1.392       .  A
C1861      H1871   1.083       .  S
C1862      C1867   1.482       .  S
C1862      C1863   1.408       .  A
C1863      C1864   1.401       .  A
C1863      F1868   1.357       .  S
C1864      C1865   1.403       .  A
C1864      H1869   1.083       .  S
C1865      C1866   1.408       .  A
C1866      F1870   1.358       .  S
C1867      C1872   1.407       .  A
C1867      C1876   1.403       .  A
C1872      C1873   1.398       .  A
C1872      F1877   1.358       .  S
C1873      C1874   1.408       .  A
C1873      H1878   1.083       .  S
C1874      C1875   1.410       .  A
C1875      C1876   1.396       .  A
C1875      F1879   1.357       .  S
C1876      H1880   1.083       .  S
C1881      C1882   1.401       .  A
C1881      C1886   1.396       .  A
C1881      H1891   1.083       .  S
C1882      C1887   1.466       .  S
C1882      C1883   1.399       .  A
C1883      C1884   1.390       .  A
C1883      F1888   1.358       .  S
C1884      C1885   1.409       .  A
C1884      H1889   1.083       .  S
C1885      C1886   1.411       .  A
C1886      F1890   1.357       .  S
C1887      C1892   1.400       .  A
C1887      C1896   1.401       .  A
C1892      C1893   1.392       .  A
C1892      F1897   1.358       .  S
C1893      C1894   1.407       .  A
C1893      H1898   1.083       .  S
C1894      C1895   1.408       .  A
C1895      C1896   1.395       .  A
C1895      F1899   1.357       .  S
C1896      H1900   1.084       .  S
C1901      C1902   1.403       .  A
C1901      C1906   1.399       .  A
C1901      H1911   1.083       .  S
C1902      C1907   1.478       .  S
C1902      C1903   1.404       .  A
C1903      C1904   1.396       .  A
C1903      F1908   1.358       .  S
C1904      C1905   1.408       .  A
C1904      H1909   1.083       .  S
C1905      C1906   1.410       .  A
C1906      F1910   1.357       .  S
C1907      C1912   1.404       .  A
C1907      C1916   1.405       .  A
C1912      C1913   1.394       .  A
C1912      F1917   1.358       .  S
C1913      C1914   1.406       .  A
C1913      H1918   1.083       .  S
C1914      C1915   1.408       .  A
C1915      C1916   1.400       .  A
C1915      F1919   1.358       .  S
C1916      H1920   1.083       .  S
C1921      C1922   1.405       .  A
C1921      C1926   1.396       .  A
C1921      H1931   1.083       .  S
C1922      C1927   1.487       .  S
C1922      C1923   1.408       .  A
C1923      C1924   1.400       .  A
C1923      F1928   1.357       .  S
C1924      C1925   1.406       .  A
C1924      H1929   1.083       .  S
C1925      C1926   1.406       .  A
C1926      F1930   1.357       .  S
C1927      C1932   1.407       .  A
C1927      C1936   1.404       .  A
C1932      C1933   1.398       .  A
C1932      F1937   1.357       .  S
C1933      C1934   1.406       .  A
C1933      H1938   1.083       .  S
C1934      C1935   1.414       .  A
C1935      C1936   1.399       .  A
C1935      F1939   1.358       .  S
C1936      H1940   1.083       .  S
C1941      C1942   1.406       .  A
C1941      C1946   1.398       .  A
C1941      H1951   1.083       .  S
C1942      C1947   1.485       .  S
C1942      C1943   1.406       .  A
C1943      C1944   1.395       .  A
C1943      F1948   1.358       .  S
C1944      C1945   1.408       .  A
C1944      H1949   1.083       .  S
C1945      C1946   1.408       .  A
C1946      F1950   1.357       .  S
C1947      C1952   1.407       .  A
C1947      C1956   1.407       .  A
C1952      C1953   1.396       .  A
C1952      F1957   1.357       .  S
C1953      C1954   1.403       .  A
C1953      H1958   1.083       .  S
C1954      C1955   1.406       .  A
C1955      C1956   1.398       .  A
C1955      F1959   1.358   1_655  S
C1956      H1960   1.083       .  S
C1961      C1962   1.405       .  A
C1961      C1966   1.403       .  A
C1961      H1971   1.083       .  S
C1962      C1967   1.478       .  S
C1962      C1963   1.400       .  A
C1963      C1964   1.391       .  A
C1963      F1968   1.358       .  S
C1964      C1965   1.411       .  A
C1964      H1969   1.083       .  S
C1965      C1966   1.410       .  A
C1966      F1970   1.357       .  S
C1967      C1972   1.403       .  A
C1967      C1976   1.401       .  A
C1972      C1973   1.400       .  A
C1972      F1977   1.357       .  S
C1973      C1974   1.408       .  A
C1973      H1978   1.083       .  S
C1974      C1975   1.413       .  A
C1975      C1976   1.396       .  A
C1975      F1979   1.357       .  S
C1976      H1980   1.084       .  S
C1981      C1982   1.403       .  A
C1981      C1986   1.395       .  A
C1981      H1991   1.083       .  S
C1982      C1987   1.480       .  S
C1982      C1983   1.409       .  A
C1983      C1984   1.395       .  A
C1983      F1988   1.357       .  S
C1984      C1985   1.400       .  A
C1984      H1989   1.083       .  S
C1985      C1986   1.408       .  A
C1986      F1990   1.358       .  S
C1987      C1992   1.408       .  A
C1987      C1996   1.405       .  A
C1992      C1993   1.395       .  A
C1992      F1997   1.357       .  S
C1993      C1994   1.402       .  A
C1993      H1998   1.084       .  S
C1994      C1995   1.404       .  A
C1995      C1996   1.394       .  A
C1995      F1999   1.358       .  S
C1996      H2000   1.083       .  S
C2001      C2002   1.404       .  A
C2001      C2006   1.396       .  A
C2001      H2011   1.083       .  S
C2002      C2007   1.479       .  S
C2002      C2003   1.404       .  A
C2003      C2004   1.396       .  A
C2003      F2008   1.358       .  S
C2004      C2005   1.410       .  A
C2004      H2009   1.083       .  S
C2005      C2006   1.409       .  A
C2006      F2010   1.357       .  S
C2007      C2012   1.406       .  A
C2007      C2016   1.405       .  A
C2012      C2013   1.393       .  A
C2012      F2017   1.358       .  S
C2013      C2014   1.402       .  A
C2013      H2018   1.084       .  S
C2014      C2015   1.406       .  A
C2015      C2016   1.399       .  A
C2015      F2019   1.357   1_655  S
C2016      H2020   1.083       .  S
C2021      C2022   1.405       .  A
C2021      C2026   1.401       .  A
C2021      H2031   1.083       .  S
C2022      C2027   1.489       .  S
C2022      C2023   1.406       .  A
C2023      C2024   1.397       .  A
C2023      F2028   1.357       .  S
C2024      C2025   1.408       .  A
C2024      H2029   1.083       .  S
C2025      C2026   1.413       .  A
C2026      F2030   1.358       .  S
C2027      C2032   1.409       .  A
C2027      C2036   1.406       .  A
C2032      C2033   1.402       .  A
C2032      F2037   1.357       .  S
C2033      C2034   1.403       .  A
C2033      H2038   1.083       .  S
C2034      C2035   1.405       .  A
C2035      C2036   1.397       .  A
C2035      F2039   1.358       .  S
C2036      H2040   1.083       .  S
C2041      C2042   1.401       .  A
C2041      C2046   1.393       .  A
C2041      H2051   1.083       .  S
C2042      C2047   1.479       .  S
C2042      C2043   1.407       .  A
C2043      C2044   1.399       .  A
C2043      F2048   1.358   1_455  S
C2044      C2045   1.406       .  A
C2044      H2049   1.083   1_455  S
C2045      C2046   1.408       .  A
C2046      F2050   1.357       .  S
C2047      C2052   1.403   1_565  A
C2047      C2056   1.406   1_565  A
C2052      C2053   1.391       .  A
C2052      F2057   1.358   1_445  S
C2053      C2054   1.408       .  A
C2053      H2058   1.083   1_455  S
C2054      C2055   1.408       .  A
C2055      C2056   1.400       .  A
C2055      F2059   1.357       .  S
C2056      H2060   1.083   1_545  S
C2061      C2062   1.407       .  A
C2061      C2066   1.400       .  A
C2061      H2071   1.083       .  S
C2062      C2067   1.483       .  S
C2062      C2063   1.406       .  A
C2063      C2064   1.396       .  A
C2063      F2068   1.357       .  S
C2064      C2065   1.403       .  A
C2064      H2069   1.083       .  S
C2065      C2066   1.405       .  A
C2066      F2070   1.358       .  S
C2067      C2072   1.409       .  A
C2067      C2076   1.404       .  A
C2072      C2073   1.399       .  A
C2072      F2077   1.358       .  S
C2073      C2074   1.403       .  A
C2073      H2078   1.084       .  S
C2074      C2075   1.406       .  A
C2075      C2076   1.397       .  A
C2075      F2079   1.358       .  S
C2076      H2080   1.083       .  S
C2081      C2082   1.403       .  A
C2081      C2086   1.397       .  A
C2081      H2091   1.083       .  S
C2082      C2087   1.483       .  S
C2082      C2083   1.408       .  A
C2083      C2084   1.398       .  A
C2083      F2088   1.357       .  S
C2084      C2085   1.403       .  A
C2084      H2089   1.083       .  S
C2085      C2086   1.410       .  A
C2086      F2090   1.357       .  S
C2087      C2092   1.408       .  A
C2087      C2096   1.405       .  A
C2092      C2093   1.398       .  A
C2092      F2097   1.358       .  S
C2093      C2094   1.403       .  A
C2093      H2098   1.084       .  S
C2094      C2095   1.405       .  A
C2095      C2096   1.398       .  A
C2095      F2099   1.358       .  S
C2096      H2100   1.083       .  S
C2101      C2102   1.403       .  A
C2101      C2106   1.394       .  A
C2101      H2111   1.083       .  S
C2102      C2107   1.486       .  S
C2102      C2103   1.409       .  A
C2103      C2104   1.402       .  A
C2103      F2108   1.357   1_455  S
C2104      C2105   1.406       .  A
C2104      H2109   1.083   1_455  S
C2105      C2106   1.409       .  A
C2106      F2110   1.358       .  S
C2107      C2112   1.409       .  A
C2107      C2116   1.402       .  A
C2112      C2113   1.399       .  A
C2112      F2117   1.357       .  S
C2113      C2114   1.405       .  A
C2113      H2118   1.083       .  S
C2114      C2115   1.413       .  A
C2115      C2116   1.397       .  A
C2115      F2119   1.358   1_455  S
C2116      H2120   1.083   1_455  S
C2121      C2122   1.406       .  A
C2121      C2126   1.399       .  A
C2121      H2131   1.083       .  S
C2122      C2127   1.483       .  S
C2122      C2123   1.405       .  A
C2123      C2124   1.398       .  A
C2123      F2128   1.358       .  S
C2124      C2125   1.408       .  A
C2124      H2129   1.083       .  S
C2125      C2126   1.406       .  A
C2126      F2130   1.357       .  S
C2127      C2132   1.404       .  A
C2127      C2136   1.407       .  A
C2132      C2133   1.391       .  A
C2132      F2137   1.357       .  S
C2133      C2134   1.405       .  A
C2133      H2138   1.083       .  S
C2134      C2135   1.410       .  A
C2135      C2136   1.404       .  A
C2135      F2139   1.358       .  S
C2136      H2140   1.083       .  S
C2141      C2142   1.406       .  A
C2141      C2146   1.399       .  A
C2141      H2151   1.083       .  S
C2142      C2147   1.493       .  S
C2142      C2143   1.408       .  A
C2143      C2144   1.402       .  A
C2143      F2148   1.357       .  S
C2144      C2145   1.410       .  A
C2144      H2149   1.083       .  S
C2145      C2146   1.409       .  A
C2146      F2150   1.357       .  S
C2147      C2152   1.408       .  A
C2147      C2156   1.408       .  A
C2152      C2153   1.399       .  A
C2152      F2157   1.358       .  S
C2153      C2154   1.405       .  A
C2153      H2158   1.083       .  S
C2154      C2155   1.409       .  A
C2155      C2156   1.404       .  A
C2155      F2159   1.357   1_655  S
C2156      H2160   1.083       .  S
C2161      C2162   1.405       .  A
C2161      C2166   1.397       .  A
C2161      H2171   1.083       .  S
C2162      C2167   1.491       .  S
C2162      C2163   1.410       .  A
C2163      C2164   1.400       .  A
C2163      F2168   1.357       .  S
C2164      C2165   1.406       .  A
C2164      H2169   1.083       .  S
C2165      C2166   1.411       .  A
C2166      F2170   1.358       .  S
C2167      C2172   1.409       .  A
C2167      C2176   1.406       .  A
C2172      C2173   1.396       .  A
C2172      F2177   1.357       .  S
C2173      C2174   1.407       .  A
C2173      H2178   1.083       .  S
C2174      C2175   1.411       .  A
C2175      C2176   1.400       .  A
C2175      F2179   1.357       .  S
C2176      H2180   1.083       .  S
C2181      C2182   1.406       .  A
C2181      C2186   1.396       .  A
C2181      H2191   1.083       .  S
C2182      C2187   1.480       .  S
C2182      C2183   1.408       .  A
C2183      C2184   1.393       .  A
C2183      F2188   1.357       .  S
C2184      C2185   1.399       .  A
C2184      H2189   1.084       .  S
C2185      C2186   1.404       .  A
C2186      F2190   1.358       .  S
C2187      C2192   1.408       .  A
C2187      C2196   1.404       .  A
C2192      C2193   1.397       .  A
C2192      F2197   1.358       .  S
C2193      C2194   1.404       .  A
C2193      H2198   1.083       .  S
C2194      C2195   1.406       .  A
C2195      C2196   1.394       .  A
C2195      F2199   1.357       .  S
C2196      H2200   1.083       .  S
C2201      C2202   1.405       .  A
C2201      C2206   1.399       .  A
C2201      H2211   1.083       .  S
C2202      C2207   1.482       .  S
C2202      C2203   1.405       .  A
C2203      C2204   1.396       .  A
C2203      F2208   1.357   1_455  S
C2204      C2205   1.406       .  A
C2204      H2209   1.083   1_455  S
C2205      C2206   1.408       .  A
C2206      F2210   1.357       .  S
C2207      C2212   1.407       .  A
C2207      C2216   1.402       .  A
C2212      C2213   1.398       .  A
C2212      F2217   1.358   1_455  S
C2213      C2214   1.405       .  A
C2213      H2218   1.083   1_455  S
C2214      C2215   1.409       .  A
C2215      C2216   1.396       .  A
C2215      F2219   1.357       .  S
C2216      H2220   1.083       .  S
C2221      C2222   1.405       .  A
C2221      C2226   1.397       .  A
C2221      H2231   1.083       .  S
C2222      C2227   1.479       .  S
C2222      C2223   1.404       .  A
C2223      C2224   1.394       .  A
C2223      F2228   1.357       .  S
C2224      C2225   1.404       .  A
C2224      H2229   1.083       .  S
C2225      C2226   1.408       .  A
C2226      F2230   1.358       .  S
C2227      C2232   1.404       .  A
C2227      C2236   1.404       .  A
C2232      C2233   1.396       .  A
C2232      F2237   1.358       .  S
C2233      C2234   1.407       .  A
C2233      H2238   1.083       .  S
C2234      C2235   1.409       .  A
C2235      C2236   1.396       .  A
C2235      F2239   1.358       .  S
C2236      H2240   1.083       .  S
C2241      C2242   1.402       .  A
C2241      C2246   1.390       .  A
C2241      H2251   1.083       .  S
C2242      C2247   1.477       .  S
C2242      C2243   1.408       .  A
C2243      C2244   1.398       .  A
C2243      F2248   1.358       .  S
C2244      C2245   1.405       .  A
C2244      H2249   1.084       .  S
C2245      C2246   1.405       .  A
C2246      F2250   1.358       .  S
C2247      C2252   1.405       .  A
C2247      C2256   1.404       .  A
C2252      C2253   1.395       .  A
C2252      F2257   1.358       .  S
C2253      C2254   1.407       .  A
C2253      H2258   1.083       .  S
C2254      C2255   1.408       .  A
C2255      C2256   1.395       .  A
C2255      F2259   1.357       .  S
C2256      H2260   1.083       .  S
C2261      C2262   1.407   1_545  A
C2261      C2266   1.403       .  A
C2261      H2271   1.083   1_545  S
C2262      C2267   1.488       .  S
C2262      C2263   1.407       .  A
C2263      C2264   1.396   1_565  A
C2263      F2268   1.358   1_455  S
C2264      C2265   1.406       .  A
C2264      H2269   1.083   1_455  S
C2265      C2266   1.407       .  A
C2266      F2270   1.357       .  S
C2267      C2272   1.407       .  A
C2267      C2276   1.406       .  A
C2272      C2273   1.398       .  A
C2272      F2277   1.357       .  S
C2273      C2274   1.406       .  A
C2273      H2278   1.083       .  S
C2274      C2275   1.411       .  A
C2275      C2276   1.400       .  A
C2275      F2279   1.358   1_455  S
C2276      H2280   1.083   1_455  S
C2281      C2282   1.406       .  A
C2281      C2286   1.404       .  A
C2281      H2291   1.083       .  S
C2282      C2287   1.488       .  S
C2282      C2283   1.405       .  A
C2283      C2284   1.396       .  A
C2283      F2288   1.357       .  S
C2284      C2285   1.409       .  A
C2284      H2289   1.083       .  S
C2285      C2286   1.413       .  A
C2286      F2290   1.357       .  S
C2287      C2292   1.405       .  A
C2287      C2296   1.406       .  A
C2292      C2293   1.396       .  A
C2292      F2297   1.358       .  S
C2293      C2294   1.409       .  A
C2293      H2298   1.083       .  S
C2294      C2295   1.411       .  A
C2295      C2296   1.404       .  A
C2295      F2299   1.357       .  S
C2296      H2300   1.083       .  S
C2301      C2302   1.406       .  A
C2301      C2306   1.398       .  A
C2301      H2311   1.083       .  S
C2302      C2307   1.485       .  S
C2302      C2303   1.408       .  A
C2303      C2304   1.397       .  A
C2303      F2308   1.357       .  S
C2304      C2305   1.404       .  A
C2304      H2309   1.083       .  S
C2305      C2306   1.406       .  A
C2306      F2310   1.358       .  S
C2307      C2312   1.408       .  A
C2307      C2316   1.406       .  A
C2312      C2313   1.397       .  A
C2312      F2317   1.358       .  S
C2313      C2314   1.404       .  A
C2313      H2318   1.083       .  S
C2314      C2315   1.405       .  A
C2315      C2316   1.398       .  A
C2315      F2319   1.357       .  S
C2316      H2320   1.083       .  S
C2321      C2322   1.404       .  A
C2321      C2326   1.400       .  A
C2321      H2331   1.083       .  S
C2322      C2327   1.490       .  S
C2322      C2323   1.407       .  A
C2323      C2324   1.403       .  A
C2323      F2328   1.358       .  S
C2324      C2325   1.409       .  A
C2324      H2329   1.083       .  S
C2325      C2326   1.412       .  A
C2326      F2330   1.357       .  S
C2327      C2332   1.407       .  A
C2327      C2336   1.408       .  A
C2332      C2333   1.397       .  A
C2332      F2337   1.357       .  S
C2333      C2334   1.406       .  A
C2333      H2338   1.083       .  S
C2334      C2335   1.408       .  A
C2335      C2336   1.404       .  A
C2335      F2339   1.357       .  S
C2336      H2340   1.083       .  S
C2341      C2342   1.404       .  A
C2341      C2346   1.400       .  A
C2341      H2351   1.083       .  S
C2342      C2347   1.487       .  S
C2342      C2343   1.407       .  A
C2343      C2344   1.399       .  A
C2343      F2348   1.357       .  S
C2344      C2345   1.407       .  A
C2344      H2349   1.083       .  S
C2345      C2346   1.411       .  A
C2346      F2350   1.358       .  S
C2347      C2352   1.408       .  A
C2347      C2356   1.405       .  A
C2352      C2353   1.399       .  A
C2352      F2357   1.357       .  S
C2353      C2354   1.404       .  A
C2353      H2358   1.083       .  S
C2354      C2355   1.410       .  A
C2355      C2356   1.400       .  A
C2355      F2359   1.358       .  S
C2356      H2360   1.083       .  S
C2361      C2362   1.404       .  A
C2361      C2366   1.400       .  A
C2361      H2371   1.083       .  S
C2362      C2367   1.484       .  S
C2362      C2363   1.405       .  A
C2363      C2364   1.396       .  A
C2363      F2368   1.358       .  S
C2364      C2365   1.409       .  A
C2364      H2369   1.083       .  S
C2365      C2366   1.410       .  A
C2366      F2370   1.357       .  S
C2367      C2372   1.407       .  A
C2367      C2376   1.401       .  A
C2372      C2373   1.402       .  A
C2372      F2377   1.357       .  S
C2373      C2374   1.406       .  A
C2373      H2378   1.083       .  S
C2374      C2375   1.414       .  A
C2375      C2376   1.395       .  A
C2375      F2379   1.358       .  S
C2376      H2380   1.083       .  S
C2381      C2382   1.402       .  A
C2381      C2386   1.397       .  A
C2381      H2391   1.083       .  S
C2382      C2387   1.474       .  S
C2382      C2383   1.403       .  A
C2383      C2384   1.393       .  A
C2383      F2388   1.358       .  S
C2384      C2385   1.406       .  A
C2384      H2389   1.083       .  S
C2385      C2386   1.410       .  A
C2386      F2390   1.357       .  S
C2387      C2392   1.402       .  A
C2387      C2396   1.403       .  A
C2392      C2393   1.391       .  A
C2392      F2397   1.358       .  S
C2393      C2394   1.408       .  A
C2393      H2398   1.083       .  S
C2394      C2395   1.411       .  A
C2395      C2396   1.398       .  A
C2395      F2399   1.357       .  S
C2396      H2400   1.083       .  S
C2401      C2402   1.405       .  A
C2401      C2406   1.400       .  A
C2401      H2411   1.083       .  S
C2402      C2407   1.482       .  S
C2402      C2403   1.406       .  A
C2403      C2404   1.394       .  A
C2403      F2408   1.358       .  S
C2404      C2405   1.405       .  A
C2404      H2409   1.083       .  S
C2405      C2406   1.409       .  A
C2406      F2410   1.357       .  S
C2407      C2412   1.406       .  A
C2407      C2416   1.403       .  A
C2412      C2413   1.399       .  A
C2412      F2417   1.358       .  S
C2413      C2414   1.408       .  A
C2413      H2418   1.083       .  S
C2414      C2415   1.410       .  A
C2415      C2416   1.394       .  A
C2415      F2419   1.357       .  S
C2416      H2420   1.083       .  S
C2421      C2422   1.405       .  A
C2421      C2426   1.400       .  A
C2421      H2431   1.083       .  S
C2422      C2427   1.489       .  S
C2422      C2423   1.408       .  A
C2423      C2424   1.396       .  A
C2423      F2428   1.357       .  S
C2424      C2425   1.405       .  A
C2424      H2429   1.083       .  S
C2425      C2426   1.413       .  A
C2426      F2430   1.358       .  S
C2427      C2432   1.409       .  A
C2427      C2436   1.406       .  A
C2432      C2433   1.402       .  A
C2432      F2437   1.357       .  S
C2433      C2434   1.406       .  A
C2433      H2438   1.083       .  S
C2434      C2435   1.407       .  A
C2435      C2436   1.396       .  A
C2435      F2439   1.358       .  S
C2436      H2440   1.083       .  S
C2441      C2442   1.401       .  A
C2441      C2446   1.391       .  A
C2441      H2451   1.083       .  S
C2442      C2447   1.477       .  S
C2442      C2443   1.404       .  A
C2443      C2444   1.400       .  A
C2443      F2448   1.358       .  S
C2444      C2445   1.411       .  A
C2444      H2449   1.083       .  S
C2445      C2446   1.409       .  A
C2446      F2450   1.356       .  S
C2447      C2452   1.402       .  A
C2447      C2456   1.405       .  A
C2452      C2453   1.388       .  A
C2452      F2457   1.358       .  S
C2453      C2454   1.408       .  A
C2453      H2458   1.083       .  S
C2454      C2455   1.411       .  A
C2455      C2456   1.402       .  A
C2455      F2459   1.357       .  S
C2456      H2460   1.083       .  S
C2461      C2462   1.402       .  A
C2461      C2466   1.394       .  A
C2461      H2471   1.084       .  S
C2462      C2467   1.479       .  S
C2462      C2463   1.405       .  A
C2463      C2464   1.399       .  A
C2463      F2468   1.357       .  S
C2464      C2465   1.408       .  A
C2464      H2469   1.083       .  S
C2465      C2466   1.410       .  A
C2466      F2470   1.356       .  S
C2467      C2472   1.405       .  A
C2467      C2476   1.401       .  A
C2472      C2473   1.400       .  A
C2472      F2477   1.357       .  S
C2473      C2474   1.409       .  A
C2473      H2478   1.083       .  S
C2474      C2475   1.413       .  A
C2475      C2476   1.393       .  A
C2475      F2479   1.358       .  S
C2476      H2480   1.084       .  S
C2481      C2482   1.407       .  A
C2481      C2486   1.401       .  A
C2481      H2491   1.083       .  S
C2482      C2487   1.488       .  S
C2482      C2483   1.407       .  A
C2483      C2484   1.397       .  A
C2483      F2488   1.358       .  S
C2484      C2485   1.406       .  A
C2484      H2489   1.083       .  S
C2485      C2486   1.408       .  A
C2486      F2490   1.357       .  S
C2487      C2492   1.407       .  A
C2487      C2496   1.406       .  A
C2492      C2493   1.397       .  A
C2492      F2497   1.357       .  S
C2493      C2494   1.406       .  A
C2493      H2498   1.083       .  S
C2494      C2495   1.410       .  A
C2495      C2496   1.400       .  A
C2495      F2499   1.358       .  S
C2496      H2500   1.083       .  S
C2501      C2502   1.406       .  A
C2501      C2506   1.402       .  A
C2501      H2511   1.083       .  S
C2502      C2507   1.488       .  S
C2502      C2503   1.409       .  A
C2503      C2504   1.399       .  A
C2503      F2508   1.357       .  S
C2504      C2505   1.402       .  A
C2504      H2509   1.083       .  S
C2505      C2506   1.407       .  A
C2506      F2510   1.358       .  S
C2507      C2512   1.407       .  A
C2507      C2516   1.402       .  A
C2512      C2513   1.404       .  A
C2512      F2517   1.358       .  S
C2513      C2514   1.411       .  A
C2513      H2518   1.083       .  S
C2514      C2515   1.413       .  A
C2515      C2516   1.398       .  A
C2515      F2519   1.357       .  S
C2516      H2520   1.083       .  S
C2521      C2522   1.401       .  A
C2521      C2526   1.392       .  A
C2521      H2531   1.084       .  S
C2522      C2527   1.477       .  S
C2522      C2523   1.406       .  A
C2523      C2524   1.400       .  A
C2523      F2528   1.357       .  S
C2524      C2525   1.408       .  A
C2524      H2529   1.083       .  S
C2525      C2526   1.410       .  A
C2526      F2530   1.358       .  S
C2527      C2532   1.405       .  A
C2527      C2536   1.403       .  A
C2532      C2533   1.394       .  A
C2532      F2537   1.358       .  S
C2533      C2534   1.403       .  A
C2533      H2538   1.083       .  S
C2534      C2535   1.410       .  A
C2535      C2536   1.398       .  A
C2535      F2539   1.358       .  S
C2536      H2540   1.083       .  S
C2541      C2542   1.408       .  A
C2541      C2546   1.399       .  A
C2541      H2551   1.083       .  S
C2542      C2547   1.486       .  S
C2542      C2543   1.407       .  A
C2543      C2544   1.394       .  A
C2543      F2548   1.357       .  S
C2544      C2545   1.403       .  A
C2544      H2549   1.083       .  S
C2545      C2546   1.406       .  A
C2546      F2550   1.358       .  S
C2547      C2552   1.409       .  A
C2547      C2556   1.408       .  A
C2552      C2553   1.397       .  A
C2552      F2557   1.357       .  S
C2553      C2554   1.402       .  A
C2553      H2558   1.084       .  S
C2554      C2555   1.402       .  A
C2555      C2556   1.396       .  A
C2555      F2559   1.358       .  S
C2556      H2560   1.083       .  S
C2561      C2562   1.405       .  A
C2561      C2566   1.396       .  A
C2561      H2571   1.082       .  S
C2562      C2567   1.493       .  S
C2562      C2563   1.414       .  A
C2563      C2564   1.402       .  A
C2563      F2568   1.357       .  S
C2564      C2565   1.401       .  A
C2564      H2569   1.083       .  S
C2565      C2566   1.407       .  A
C2566      F2570   1.358       .  S
C2567      C2572   1.411       .  A
C2567      C2576   1.404       .  A
C2572      C2573   1.401       .  A
C2572      F2577   1.357       .  S
C2573      C2574   1.407       .  A
C2573      H2578   1.083       .  S
C2574      C2575   1.412       .  A
C2575      C2576   1.397       .  A
C2575      F2579   1.357       .  S
C2576      H2580   1.083       .  S
C2581      C2582   1.402       .  A
C2581      C2586   1.399       .  A
C2581      H2591   1.083       .  S
C2582      C2587   1.487       .  S
C2582      C2583   1.408       .  A
C2583      C2584   1.403       .  A
C2583      F2588   1.357       .  S
C2584      C2585   1.407       .  A
C2584      H2589   1.083       .  S
C2585      C2586   1.413       .  A
C2586      F2590   1.358       .  S
C2587      C2592   1.408       .  A
C2587      C2596   1.404       .  A
C2592      C2593   1.403       .  A
C2592      F2597   1.358       .  S
C2593      C2594   1.406       .  A
C2593      H2598   1.083       .  S
C2594      C2595   1.408       .  A
C2595      C2596   1.400       .  A
C2595      F2599   1.357       .  S
C2596      H2600   1.083       .  S
C2601      C2602   1.400       .  A
C2601      C2606   1.394       .  A
C2601      H2611   1.084       .  S
C2602      C2607   1.467       .  S
C2602      C2603   1.402       .  A
C2603      C2604   1.395       .  A
C2603      F2608   1.358       .  S
C2604      C2605   1.405       .  A
C2604      H2609   1.083       .  S
C2605      C2606   1.408       .  A
C2606      F2610   1.357       .  S
C2607      C2612   1.400       .  A
C2607      C2616   1.401       .  A
C2612      C2613   1.390       .  A
C2612      F2617   1.358       .  S
C2613      C2614   1.408       .  A
C2613      H2618   1.083       .  S
C2614      C2615   1.410       .  A
C2615      C2616   1.396       .  A
C2615      F2619   1.357       .  S
C2616      H2620   1.083       .  S
C2621      C2622   1.404       .  A
C2621      C2626   1.396       .  A
C2621      H2631   1.083       .  S
C2622      C2627   1.477       .  S
C2622      C2623   1.405       .  A
C2623      C2624   1.397       .  A
C2623      F2628   1.357       .  S
C2624      C2625   1.405       .  A
C2624      H2629   1.083       .  S
C2625      C2626   1.407       .  A
C2626      F2630   1.358       .  S
C2627      C2632   1.408       .  A
C2627      C2636   1.403       .  A
C2632      C2633   1.398       .  A
C2632      F2637   1.358       .  S
C2633      C2634   1.401       .  A
C2633      H2638   1.084       .  S
C2634      C2635   1.403       .  A
C2635      C2636   1.395       .  A
C2635      F2639   1.358       .  S
C2636      H2640   1.083       .  S
C2641      C2642   1.407       .  A
C2641      C2646   1.400       .  A
C2641      H2651   1.083       .  S
C2642      C2647   1.492       .  S
C2642      C2643   1.410       .  A
C2643      C2644   1.401       .  A
C2643      F2648   1.357       .  S
C2644      C2645   1.404       .  A
C2644      H2649   1.083       .  S
C2645      C2646   1.405       .  A
C2646      F2650   1.357   1_565  S
C2647      C2652   1.408       .  A
C2647      C2656   1.406       .  A
C2652      C2653   1.398       .  A
C2652      F2657   1.357   1_565  S
C2653      C2654   1.407       .  A
C2653      H2658   1.083   1_565  S
C2654      C2655   1.412       .  A
C2655      C2656   1.402       .  A
C2655      F2659   1.357       .  S
C2656      H2660   1.083       .  S
C2661      C2662   1.406       .  A
C2661      C2666   1.400       .  A
C2661      H2671   1.083       .  S
C2662      C2667   1.490       .  S
C2662      C2663   1.407       .  A
C2663      C2664   1.399       .  A
C2663      F2668   1.358       .  S
C2664      C2665   1.407       .  A
C2664      H2669   1.083       .  S
C2665      C2666   1.411       .  A
C2666      F2670   1.357       .  S
C2667      C2672   1.409       .  A
C2667      C2676   1.407       .  A
C2672      C2673   1.399       .  A
C2672      F2677   1.357       .  S
C2673      C2674   1.404       .  A
C2673      H2678   1.083       .  S
C2674      C2675   1.408       .  A
C2675      C2676   1.399       .  A
C2675      F2679   1.358       .  S
C2676      H2680   1.083       .  S
C2681      C2682   1.409       .  A
C2681      C2686   1.405       .  A
C2681      H2691   1.083       .  S
C2682      C2687   1.492       .  S
C2682      C2683   1.408       .  A
C2683      C2684   1.394       .  A
C2683      F2688   1.357       .  S
C2684      C2685   1.402       .  A
C2684      H2689   1.083       .  S
C2685      C2686   1.408       .  A
C2686      F2690   1.358       .  S
C2687      C2692   1.407       .  A
C2687      C2696   1.406       .  A
C2692      C2693   1.401       .  A
C2692      F2697   1.357       .  S
C2693      C2694   1.410       .  A
C2693      H2698   1.083       .  S
C2694      C2695   1.411       .  A
C2695      C2696   1.399       .  A
C2695      F2699   1.357       .  S
C2696      H2700   1.083       .  S
C2701      C2702   1.404       .  A
C2701      C2706   1.394       .  A
C2701      H2711   1.083   1_565  S
C2702      C2707   1.486   1_556  S
C2702      C2703   1.409       .  A
C2703      C2704   1.398       .  A
C2703      F2708   1.358       .  S
C2704      C2705   1.406       .  A
C2704      H2709   1.083       .  S
C2705      C2706   1.409       .  A
C2706      F2710   1.357   1_565  S
C2707      C2712   1.408       .  A
C2707      C2716   1.408       .  A
C2712      C2713   1.394       .  A
C2712      F2717   1.357       .  S
C2713      C2714   1.405       .  A
C2713      H2718   1.083       .  S
C2714      C2715   1.406       .  A
C2715      C2716   1.400       .  A
C2715      F2719   1.357   1_565  S
C2716      H2720   1.083   1_565  S
C2721      C2722   1.403       .  A
C2721      C2726   1.397       .  A
C2721      H2731   1.083       .  S
C2722      C2727   1.478       .  S
C2722      C2723   1.405       .  A
C2723      C2724   1.396       .  A
C2723      F2728   1.357       .  S
C2724      C2725   1.404       .  A
C2724      H2729   1.083       .  S
C2725      C2726   1.409       .  A
C2726      F2730   1.357   1_545  S
C2727      C2732   1.405       .  A
C2727      C2736   1.400       .  A
C2732      C2733   1.400       .  A
C2732      F2737   1.357       .  S
C2733      C2734   1.407       .  A
C2733      H2738   1.083       .  S
C2734      C2735   1.414       .  A
C2735      C2736   1.395       .  A
C2735      F2739   1.358       .  S
C2736      H2740   1.084       .  S
C2741      C2742   1.399       .  A
C2741      C2746   1.394       .  A
C2741      H2751   1.083       .  S
C2742      C2747   1.466       .  S
C2742      C2743   1.401       .  A
C2743      C2744   1.392       .  A
C2743      F2748   1.358       .  S
C2744      C2745   1.407       .  A
C2744      H2749   1.083       .  S
C2745      C2746   1.411       .  A
C2746      F2750   1.357       .  S
C2747      C2752   1.401       .  A
C2747      C2756   1.398       .  A
C2752      C2753   1.395       .  A
C2752      F2757   1.358       .  S
C2753      C2754   1.408       .  A
C2753      H2758   1.083       .  S
C2754      C2755   1.412       .  A
C2755      C2756   1.393       .  A
C2755      F2759   1.357       .  S
C2756      H2760   1.084       .  S
C2761      C2762   1.404       .  A
C2761      C2766   1.397       .  A
C2761      H2771   1.083   1_565  S
C2762      C2767   1.485       .  S
C2762      C2763   1.408       .  A
C2763      C2764   1.398       .  A
C2763      F2768   1.358       .  S
C2764      C2765   1.406       .  A
C2764      H2769   1.083       .  S
C2765      C2766   1.407       .  A
C2766      F2770   1.357   1_565  S
C2767      C2772   1.409       .  A
C2767      C2776   1.403       .  A
C2772      C2773   1.398       .  A
C2772      F2777   1.357   1_565  S
C2773      C2774   1.403       .  A
C2773      H2778   1.083   1_565  S
C2774      C2775   1.410       .  A
C2775      C2776   1.398       .  A
C2775      F2779   1.358       .  S
C2776      H2780   1.083       .  S
C2781      C2782   1.404       .  A
C2781      C2786   1.401       .  A
C2781      H2791   1.083       .  S
C2782      C2787   1.488       .  S
C2782      C2783   1.408       .  A
C2783      C2784   1.400       .  A
C2783      F2788   1.358       .  S
C2784      C2785   1.405       .  A
C2784      H2789   1.083       .  S
C2785      C2786   1.410       .  A
C2786      F2790   1.357       .  S
C2787      C2792   1.409       .  A
C2787      C2796   1.404       .  A
C2792      C2793   1.401       .  A
C2792      F2797   1.357       .  S
C2793      C2794   1.405       .  A
C2793      H2798   1.083       .  S
C2794      C2795   1.409       .  A
C2795      C2796   1.398       .  A
C2795      F2799   1.358       .  S
C2796      H2800   1.083       .  S
C2801      C2802   1.406       .  A
C2801      C2806   1.399       .  A
C2801      H2811   1.083       .  S
C2802      C2807   1.484       .  S
C2802      C2803   1.405       .  A
C2803      C2804   1.395       .  A
C2803      F2808   1.358       .  S
C2804      C2805   1.407       .  A
C2804      H2809   1.083       .  S
C2805      C2806   1.408       .  A
C2806      F2810   1.357       .  S
C2807      C2812   1.405       .  A
C2807      C2816   1.405       .  A
C2812      C2813   1.396       .  A
C2812      F2817   1.357       .  S
C2813      C2814   1.407       .  A
C2813      H2818   1.083       .  S
C2814      C2815   1.411       .  A
C2815      C2816   1.399       .  A
C2815      F2819   1.358       .  S
C2816      H2820   1.083       .  S
C2821      C2822   1.402       .  A
C2821      C2826   1.391       .  A
C2821      H2831   1.083   1_565  S
C2822      C2827   1.474   1_556  S
C2822      C2823   1.406       .  A
C2823      C2824   1.396       .  A
C2823      F2828   1.358       .  S
C2824      C2825   1.404       .  A
C2824      H2829   1.083       .  S
C2825      C2826   1.407       .  A
C2826      F2830   1.358   1_565  S
C2827      C2832   1.406       .  A
C2827      C2836   1.402       .  A
C2832      C2833   1.395       .  A
C2832      F2837   1.358   1_565  S
C2833      C2834   1.405       .  A
C2833      H2838   1.083   1_565  S
C2834      C2835   1.408       .  A
C2835      C2836   1.392       .  A
C2835      F2839   1.357       .  S
C2836      H2840   1.083       .  S
C2841      C2842   1.408       .  A
C2841      C2846   1.397       .  A
C2841      H2851   1.082       .  S
C2842      C2847   1.493       .  S
C2842      C2843   1.412       .  A
C2843      C2844   1.398       .  A
C2843      F2848   1.357       .  S
C2844      C2845   1.403       .  A
C2844      H2849   1.084       .  S
C2845      C2846   1.404       .  A
C2846      F2850   1.358       .  S
C2847      C2852   1.412       .  A
C2847      C2856   1.407       .  A
C2852      C2853   1.397       .  A
C2852      F2857   1.357       .  S
C2853      C2854   1.402       .  A
C2853      H2858   1.083       .  S
C2854      C2855   1.407       .  A
C2855      C2856   1.397       .  A
C2855      F2859   1.358       .  S
C2856      H2860   1.082       .  S
C2861      C2862   1.406       .  A
C2861      C2866   1.400       .  A
C2861      H2871   1.083       .  S
C2862      C2867   1.482       .  S
C2862      C2863   1.406       .  A
C2863      C2864   1.392       .  A
C2863      F2868   1.358       .  S
C2864      C2865   1.406       .  A
C2864      H2869   1.083       .  S
C2865      C2866   1.408       .  A
C2866      F2870   1.358       .  S
C2867      C2872   1.407       .  A
C2867      C2876   1.405       .  A
C2872      C2873   1.399       .  A
C2872      F2877   1.358       .  S
C2873      C2874   1.406       .  A
C2873      H2878   1.083       .  S
C2874      C2875   1.405       .  A
C2875      C2876   1.394       .  A
C2875      F2879   1.357       .  S
C2876      H2880   1.083       .  S
C2881      C2882   1.406   1_556  A
C2881      C2886   1.400       .  A
C2881      H2891   1.083       .  S
C2882      C2887   1.487       .  S
C2882      C2883   1.406       .  A
C2883      C2884   1.399       .  A
C2883      F2888   1.358       .  S
C2884      C2885   1.408       .  A
C2884      H2889   1.083       .  S
C2885      C2886   1.408   1_554  A
C2886      F2890   1.357       .  S
C2887      C2892   1.406   1_554  A
C2887      C2896   1.406       .  A
C2892      C2893   1.397       .  A
C2892      F2897   1.357       .  S
C2893      C2894   1.407   1_556  A
C2893      H2898   1.083       .  S
C2894      C2895   1.410       .  A
C2895      C2896   1.402       .  A
C2895      F2899   1.357       .  S
C2896      H2900   1.083       .  S
C2901      C2902   1.408       .  A
C2901      C2906   1.404       .  A
C2901      H2911   1.083       .  S
C2902      C2907   1.495       .  S
C2902      C2903   1.409       .  A
C2903      C2904   1.396       .  A
C2903      F2908   1.357       .  S
C2904      C2905   1.404       .  A
C2904      H2909   1.083       .  S
C2905      C2906   1.411       .  A
C2906      F2910   1.358       .  S
C2907      C2912   1.411       .  A
C2907      C2916   1.405       .  A
C2912      C2913   1.405       .  A
C2912      F2917   1.357       .  S
C2913      C2914   1.407       .  A
C2913      H2918   1.083       .  S
C2914      C2915   1.409       .  A
C2915      C2916   1.397       .  A
C2915      F2919   1.358       .  S
C2916      H2920   1.083       .  S
C2921      C2922   1.402       .  A
C2921      C2926   1.395       .  A
C2921      H2931   1.083       .  S
C2922      C2927   1.482       .  S
C2922      C2923   1.407       .  A
C2923      C2924   1.396       .  A
C2923      F2928   1.358       .  S
C2924      C2925   1.406       .  A
C2924      H2929   1.083       .  S
C2925      C2926   1.412       .  A
C2926      F2930   1.357       .  S
C2927      C2932   1.410       .  A
C2927      C2936   1.403       .  A
C2932      C2933   1.398       .  A
C2932      F2937   1.357       .  S
C2933      C2934   1.402       .  A
C2933      H2938   1.083       .  S
C2934      C2935   1.407       .  A
C2935      C2936   1.391       .  A
C2935      F2939   1.359       .  S
C2936      H2940   1.083       .  S
C2941      C2942   1.402       .  A
C2941      C2946   1.395   1_455  A
C2941      H2951   1.084       .  S
C2942      C2947   1.474   1_554  S
C2942      C2943   1.403   1_554  A
C2943      C2944   1.396   1_455  A
C2943      F2948   1.357       .  S
C2944      C2945   1.405   1_556  A
C2944      H2949   1.083       .  S
C2945      C2946   1.410       .  A
C2946      F2950   1.357       .  S
C2947      C2952   1.406       .  A
C2947      C2956   1.403   1_556  A
C2952      C2953   1.393       .  A
C2952      F2957   1.358       .  S
C2953      C2954   1.403       .  A
C2953      H2958   1.083       .  S
C2954      C2955   1.407   1_556  A
C2955      C2956   1.397       .  A
C2955      F2959   1.357       .  S
C2956      H2960   1.083       .  S
C2961      C2962   1.406       .  A
C2961      C2966   1.400       .  A
C2961      H2971   1.083       .  S
C2962      C2967   1.489       .  S
C2962      C2963   1.410       .  A
C2963      C2964   1.397       .  A
C2963      F2968   1.357       .  S
C2964      C2965   1.400       .  A
C2964      H2969   1.083       .  S
C2965      C2966   1.407       .  A
C2966      F2970   1.358       .  S
C2967      C2972   1.409       .  A
C2967      C2976   1.406       .  A
C2972      C2973   1.402       .  A
C2972      F2977   1.358       .  S
C2973      C2974   1.406       .  A
C2973      H2978   1.083       .  S
C2974      C2975   1.405       .  A
C2975      C2976   1.397       .  A
C2975      F2979   1.357       .  S
C2976      H2980   1.083       .  S
C2981      C2982   1.404       .  A
C2981      C2986   1.403       .  A
C2981      H2991   1.083       .  S
C2982      C2987   1.480       .  S
C2982      C2983   1.402       .  A
C2983      C2984   1.395       .  A
C2983      F2988   1.358       .  S
C2984      C2985   1.409       .  A
C2984      H2989   1.083       .  S
C2985      C2986   1.412       .  A
C2986      F2990   1.357       .  S
C2987      C2992   1.403       .  A
C2987      C2996   1.401       .  A
C2992      C2993   1.402       .  A
C2992      F2997   1.358       .  S
C2993      C2994   1.410       .  A
C2993      H2998   1.083       .  S
C2994      C2995   1.412       .  A
C2995      C2996   1.398       .  A
C2995      F2999   1.357       .  S
C2996      H3000   1.083       .  S
C3001      C3002   1.405   1_554  A
C3001      C3006   1.397       .  A
C3001      H3011   1.083       .  S
C3002      C3007   1.489   1_556  S
C3002      C3003   1.409       .  A
C3003      C3004   1.398       .  A
C3003      F3008   1.357       .  S
C3004      C3005   1.405       .  A
C3004      H3009   1.083       .  S
C3005      C3006   1.409   1_556  A
C3006      F3010   1.357       .  S
C3007      C3012   1.409       .  A
C3007      C3016   1.406   1_554  A
C3012      C3013   1.397       .  A
C3012      F3017   1.357       .  S
C3013      C3014   1.404       .  A
C3013      H3018   1.083       .  S
C3014      C3015   1.410   1_554  A
C3015      C3016   1.399       .  A
C3015      F3019   1.358       .  S
C3016      H3020   1.083       .  S
C3021      C3022   1.408       .  A
C3021      C3026   1.401       .  A
C3021      H3031   1.083       .  S
C3022      C3027   1.492       .  S
C3022      C3023   1.409       .  A
C3023      C3024   1.400       .  A
C3023      F3028   1.357       .  S
C3024      C3025   1.406       .  A
C3024      H3029   1.083       .  S
C3025      C3026   1.407       .  A
C3026      F3030   1.357       .  S
C3027      C3032   1.410       .  A
C3027      C3036   1.404       .  A
C3032      C3033   1.403       .  A
C3032      F3037   1.357       .  S
C3033      C3034   1.408       .  A
C3033      H3038   1.083       .  S
C3034      C3035   1.411       .  A
C3035      C3036   1.397       .  A
C3035      F3039   1.357       .  S
C3036      H3040   1.083       .  S
C3041      C3042   1.402       .  A
C3041      C3046   1.398       .  A
C3041      H3051   1.083       .  S
C3042      C3047   1.488       .  S
C3042      C3043   1.409       .  A
C3043      C3044   1.402       .  A
C3043      F3048   1.357       .  S
C3044      C3045   1.407       .  A
C3044      H3049   1.083       .  S
C3045      C3046   1.412       .  A
C3046      F3050   1.357       .  S
C3047      C3052   1.410       .  A
C3047      C3056   1.402       .  A
C3052      C3053   1.405       .  A
C3052      F3057   1.358       .  S
C3053      C3054   1.406       .  A
C3053      H3058   1.083       .  S
C3054      C3055   1.411       .  A
C3055      C3056   1.397       .  A
C3055      F3059   1.357       .  S
C3056      H3060   1.083       .  S
C3061      C3062   1.404   1_656  A
C3061      C3066   1.396       .  A
C3061      H3071   1.083   1_655  S
C3062      C3067   1.480       .  S
C3062      C3063   1.406       .  A
C3063      C3064   1.396   1_455  A
C3063      F3068   1.357       .  S
C3064      C3065   1.406       .  A
C3064      H3069   1.083       .  S
C3065      C3066   1.408   1_554  A
C3066      F3070   1.357       .  S
C3067      C3072   1.406   1_554  A
C3067      C3076   1.405       .  A
C3072      C3073   1.393       .  A
C3072      F3077   1.358       .  S
C3073      C3074   1.404       .  A
C3073      H3078   1.083       .  S
C3074      C3075   1.409   1_556  A
C3075      C3076   1.401       .  A
C3075      F3079   1.357       .  S
C3076      H3080   1.083       .  S
C3081      C3082   1.399       .  A
C3081      C3086   1.394       .  A
C3081      H3091   1.084       .  S
C3082      C3087   1.471       .  S
C3082      C3083   1.402       .  A
C3083      C3084   1.398       .  A
C3083      F3088   1.358       .  S
C3084      C3085   1.408       .  A
C3084      H3089   1.083       .  S
C3085      C3086   1.411       .  A
C3086      F3090   1.356       .  S
C3087      C3092   1.403       .  A
C3087      C3096   1.398       .  A
C3092      C3093   1.398       .  A
C3092      F3097   1.357       .  S
C3093      C3094   1.408       .  A
C3093      H3098   1.083       .  S
C3094      C3095   1.414       .  A
C3095      C3096   1.392       .  A
C3095      F3099   1.358       .  S
C3096      H3100   1.084       .  S
C3101      C3102   1.404       .  A
C3101      C3106   1.397       .  A
C3101      H3111   1.083       .  S
C3102      C3107   1.482       .  S
C3102      C3103   1.406       .  A
C3103      C3104   1.396       .  A
C3103      F3108   1.357       .  S
C3104      C3105   1.406       .  A
C3104      H3109   1.083       .  S
C3105      C3106   1.410       .  A
C3106      F3110   1.356       .  S
C3107      C3112   1.406       .  A
C3107      C3116   1.404       .  A
C3112      C3113   1.395       .  A
C3112      F3117   1.358       .  S
C3113      C3114   1.408       .  A
C3113      H3118   1.083       .  S
C3114      C3115   1.411       .  A
C3115      C3116   1.398       .  A
C3115      F3119   1.357       .  S
C3116      H3120   1.083       .  S
