geometry optimzed in LAMMPS
_audit_creation_date              2020-11-30 
_audit_creation_method            'lammps2cif' 
_symmetry_space_group_name_H-M    'P1' 
_symmetry_Int_Tables_number       1 
_symmetry_cell_setting            triclinic 
loop_ 
_symmetry_equiv_pos_as_xyz 
  x,y,z 
_cell_length_a                    39.40455114 
_cell_length_b                    40.48887904683407 
_cell_length_c                    68.8379710365286 
_cell_angle_alpha                 90.01853301276509 
_cell_angle_beta                  90.39331719867937 
_cell_angle_gamma                 89.66297581422756 
loop_ 
_atom_site_label 
_atom_site_type_symbol 
_atom_site_fract_x 
_atom_site_fract_y 
_atom_site_fract_z 
_atom_site_charge 
N1          N  0.38306168  0.30578722  0.38048566    -0.36600
N2          N  0.37571317  0.25637698  0.41108802    -0.57200
N3          N  0.38948752  0.20627053  0.38194628    -0.36600
N4          N  0.39862072  0.25536530  0.35223569    -0.57200
C5          C  0.38158182  0.32438987  0.39676931     0.26900
C6          C  0.39778967  0.32434417  0.36655309     0.26900
C7          C  0.39363245  0.18947566  0.39879429     0.26900
C8          C  0.40398328  0.18803763  0.36773281     0.26900
C9          C  0.35939006  0.28223031  0.41924948     0.35600
C10         C  0.36489337  0.22909578  0.42042875     0.35600
C11         C  0.39732154  0.28208057  0.34040775     0.35600
C12         C  0.39696459  0.22818550  0.34081244     0.35600
C13         C  0.39542445  0.35515904  0.39323687    -0.21900
C14         C  0.40598607  0.35503820  0.37420953    -0.21900
C15         C  0.41141005  0.16045557  0.39531878    -0.21900
C16         C  0.41811414  0.15961092  0.37571154    -0.21900
C17         C  0.33859748  0.27149566  0.43409361    -0.23000
C18         C  0.34180896  0.23764797  0.43470017    -0.23000
C19         C  0.39475079  0.27189395  0.32124668    -0.23000
C20         C  0.39428967  0.23777981  0.32149870    -0.23000
C21         C  0.36437243  0.31542055  0.41387300    -0.18300
C22         C  0.40155669  0.31518556  0.34679316    -0.18300
C23         C  0.40198593  0.19523273  0.34760526    -0.18300
C24         C  0.37637106  0.19682645  0.41623207    -0.18300
H25         H  0.39709838  0.37574094  0.40322858     0.14600
H26         H  0.41752760  0.37558081  0.36673556     0.14600
H27         H  0.41757005  0.14126071  0.40572507     0.14600
H28         H  0.43092693  0.13978678  0.36811729     0.14600
H29         H  0.32258876  0.28645241  0.44335234     0.12900
H30         H  0.32876950  0.22125181  0.44452834     0.12900
H31         H  0.39408601  0.28740550  0.30844650     0.12900
H32         H  0.39326227  0.22189219  0.30886697     0.12900
H33         H  0.37058351  0.28347419  0.37845653     0.26100
H34         H  0.37312495  0.22623049  0.37979008     0.26100
N35         N  0.12250067  0.30395384  0.38105421    -0.36600
N36         N  0.11946671  0.25208960  0.35151949    -0.57200
N37         N  0.12878691  0.20404274  0.38222968    -0.36600
N38         N  0.13265090  0.25532187  0.41109298    -0.57200
C39         C  0.12507227  0.32174660  0.36450738     0.26900
C40         C  0.13367566  0.32325299  0.39584234     0.26900
C41         C  0.13526059  0.18620720  0.36607167     0.26900
C42         C  0.14351462  0.18800992  0.39732294     0.26900
C43         C  0.10739594  0.27809671  0.34113889     0.35600
C44         C  0.11011159  0.22422784  0.34198329     0.35600
C45         C  0.12875112  0.28222305  0.42238232     0.35600
C46         C  0.13134063  0.22895590  0.42297345     0.35600
C47         C  0.13765181  0.35285058  0.36885761    -0.21900
C48         C  0.14313774  0.35377299  0.38859714    -0.21900
C49         C  0.15512561  0.15896176  0.37081218    -0.21900
C50         C  0.16019793  0.15999689  0.39063239    -0.21900
C51         C  0.09036871  0.26671834  0.32478559    -0.23000
C52         C  0.09205638  0.23257559  0.32533002    -0.23000
C53         C  0.12453939  0.27296978  0.44159639    -0.23000
C54         C  0.12604301  0.23901591  0.44196235    -0.23000
C55         C  0.11340786  0.31177103  0.34589566    -0.18300
C56         C  0.13408041  0.31464721  0.41580665    -0.18300
C57         C  0.13953694  0.19665576  0.41706533    -0.18300
C58         C  0.11955185  0.19173603  0.34788497    -0.18300
H59         H  0.14201902  0.37299138  0.35886289     0.14600
H60         H  0.15259911  0.37472852  0.39671312     0.14600
H61         H  0.16362423  0.13958939  0.36112569     0.14600
H62         H  0.17373556  0.14171969  0.39920393     0.14600
H63         H  0.07825637  0.28148968  0.31358896     0.12900
H64         H  0.08145383  0.21588012  0.31464665     0.12900
H65         H  0.12204767  0.28903449  0.45408151     0.12900
H66         H  0.12492917  0.22361561  0.45478889     0.12900
H67         H  0.11025901  0.28132151  0.38235361     0.26100
H68         H  0.11105987  0.22320367  0.38326279     0.26100
N69         N  0.30989537  0.46784070  0.47772116    -0.06200
N70         N  0.32990006  0.44197583  0.47467425    -0.58300
N71         N  0.29050947  0.04381729  0.46451107    -0.05800
N72         N  0.29359836  0.06782924  0.45182176    -0.60400
N73         N  0.31567272  0.04423901  0.47712173    -0.05400
N74         N  0.33651357  0.06886169  0.47309940    -0.58300
N75         N  0.28450146  0.46769079  0.46522785    -0.05100
N76         N  0.28667563  0.44202708  0.45359290    -0.60800
C77         C  0.31500166  0.42592262  0.45955143     0.96000
C78         C  0.32241717  0.08324401  0.45708599     0.95800
N79         N  0.18840108  0.04428472  0.47947478    -0.06300
N80         N  0.17014922  0.07174425  0.47843639    -0.58900
N81         N  0.20543308  0.46782762  0.46641282    -0.04500
N82         N  0.20156951  0.44230787  0.45475874    -0.60100
N83         N  0.18203873  0.46791563  0.47992225    -0.06400
N84         N  0.16158607  0.44231530  0.47765655    -0.59100
N85         N  0.21222355  0.04443668  0.46619965    -0.04100
N86         N  0.21096477  0.07187994  0.45598722    -0.60200
Mn87       Mn  0.25117426  0.00619629  0.46450467     1.18400
C88         C  0.18495297  0.08878631  0.46387129     0.98100
C89         C  0.17407898  0.42666812  0.46178529     0.98800
N90         N  0.31724017  0.04461623  0.52321283    -0.06400
N91         N  0.33673223  0.07083044  0.52595777    -0.62700
N92         N  0.29049805  0.47090072  0.53722311    -0.05200
N93         N  0.29547236  0.44720749  0.54998414    -0.63400
N94         N  0.31394842  0.47003747  0.52373935    -0.05900
N95         N  0.33533493  0.44526289  0.52710518    -0.63000
N96         N  0.29335581  0.04388689  0.53644890    -0.04800
N97         N  0.29611058  0.06920157  0.54830876    -0.63700
Mn98       Mn  0.31846721  0.00588821  0.50016895     1.10700
C99         C  0.32318773  0.08608479  0.54174634     0.99300
C100        C  0.32346667  0.43126697  0.54363962     0.99400
N101        N  0.18559175  0.46921039  0.52574156    -0.05900
N102        N  0.16514085  0.44419039  0.52934298    -0.61300
N103        N  0.21427044  0.04279407  0.53767337    -0.05200
N104        N  0.21103088  0.06744722  0.54999353    -0.58000
N105        N  0.18926794  0.04295640  0.52494319    -0.06500
N106        N  0.16835531  0.06796540  0.52840284    -0.60800
N107        N  0.21078231  0.46967914  0.53839865    -0.05500
N108        N  0.20809022  0.44501362  0.55078131    -0.58000
Mn109      Mn  0.18762369  0.00515677  0.50173408     1.20200
Mn110      Mn  0.25457362  0.00553908  0.53742816     1.10100
Cl111      Cl  0.25302578  0.00563800  0.50098023    -0.86000
C112        C  0.17939097  0.42953013  0.54511287     0.96300
C113        C  0.18225095  0.08286131  0.54418852     0.96100
N114        N  0.38428113  0.30756622  0.62263914    -0.36600
N115        N  0.37534007  0.25821657  0.59197400    -0.57200
N116        N  0.38804740  0.20775570  0.62083711    -0.36600
N117        N  0.39886554  0.25677862  0.65078941    -0.57200
C118        C  0.38445564  0.32673073  0.60656404     0.26900
C119        C  0.39687060  0.32583249  0.63749634     0.26900
C120        C  0.38783965  0.18964830  0.60433631     0.26900
C121        C  0.40275991  0.18909103  0.63488378     0.26900
C122        C  0.36395768  0.28530515  0.58243606     0.35600
C123        C  0.36399856  0.23174314  0.58188831     0.35600
C124        C  0.39538173  0.28265551  0.66293845     0.35600
C125        C  0.39818165  0.22943951  0.66191115     0.35600
C126        C  0.39707015  0.35766442  0.61128738    -0.21900
C127        C  0.40511471  0.35701787  0.63077297    -0.21900
C128        C  0.40271077  0.15910328  0.60786289    -0.21900
C129        C  0.41235915  0.15882508  0.62713371    -0.21900
C130        C  0.34636807  0.27600297  0.56580300    -0.23000
C131        C  0.34610605  0.24201674  0.56556562    -0.23000
C132        C  0.39242261  0.27179701  0.68193530    -0.23000
C133        C  0.39416522  0.23790663  0.68128232    -0.23000
C134        C  0.36971782  0.31827358  0.58843581    -0.18300
C135        C  0.39886566  0.31576539  0.65718237    -0.18300
C136        C  0.40427951  0.19733504  0.65486652    -0.18300
C137        C  0.37056167  0.19849181  0.58703560    -0.18300
H138        H  0.39956772  0.37879511  0.60180020     0.14600
H139        H  0.41513439  0.37745302  0.63912702     0.14600
H140        H  0.40533193  0.13879089  0.59774684     0.14600
H141        H  0.42393456  0.13821521  0.63474883     0.14600
H142        H  0.33450339  0.29202686  0.55512762     0.12900
H143        H  0.33417612  0.22666396  0.55463910     0.12900
H144        H  0.39035493  0.28676750  0.69490777     0.12900
H145        H  0.39361023  0.22144857  0.69366135     0.12900
H146        H  0.37197419  0.28506498  0.62388504     0.26100
H147        H  0.37417776  0.22930505  0.62303613     0.26100
N148        N  0.13989232  0.30534418  0.62422788    -0.36600
N149        N  0.13565105  0.25701717  0.65540576    -0.57200
N150        N  0.13912246  0.20668639  0.62523452    -0.36600
N151        N  0.14399818  0.25504328  0.59502864    -0.57200
C152        C  0.14461561  0.32398756  0.64029702     0.26900
C153        C  0.15139661  0.32291372  0.60892563     0.26900
C154        C  0.14450341  0.18935679  0.64174628     0.26900
C155        C  0.15045580  0.18790682  0.61034294     0.26900
C156        C  0.12366092  0.28417978  0.66451120     0.35600
C157        C  0.12330999  0.23068235  0.66504167     0.35600
C158        C  0.14021025  0.28140485  0.58330309     0.35600
C159        C  0.13966107  0.22805295  0.58390735     0.35600
C160        C  0.15930883  0.35373877  0.63522218    -0.21900
C161        C  0.16391602  0.35295071  0.61543795    -0.21900
C162        C  0.15946536  0.15922689  0.63736676    -0.21900
C163        C  0.16333019  0.15832653  0.61752756    -0.21900
C164        C  0.10410848  0.27515408  0.68028796    -0.23000
C165        C  0.10374901  0.24108119  0.68056720    -0.23000
C166        C  0.13272319  0.27124447  0.56453677    -0.23000
C167        C  0.13262847  0.23719791  0.56488973    -0.23000
C168        C  0.13112410  0.31678673  0.65875573    -0.18300
C169        C  0.14792960  0.31381879  0.58913041    -0.18300
C170        C  0.14715028  0.19588458  0.59039791    -0.18300
C171        C  0.13049659  0.19761831  0.65993710    -0.18300
H172        H  0.16505327  0.37429096  0.64472588     0.14600
H173        H  0.17417840  0.37276886  0.60676263     0.14600
H174        H  0.16565135  0.13945932  0.64738924     0.14600
H175        H  0.17353350  0.13781428  0.60929630     0.14600
H176        H  0.09132277  0.29138752  0.69040508     0.12900
H177        H  0.09067285  0.22575090  0.69095775     0.12900
H178        H  0.12944073  0.28666906  0.55181511     0.12900
H179        H  0.12924160  0.22106714  0.55249562     0.12900
H180        H  0.12503503  0.28424133  0.62351067     0.26100
H181        H  0.12398724  0.22772941  0.62404277     0.26100
N182        N  0.47573286  0.43956398  0.27254123    -0.06200
N183        N  0.47196214  0.41389547  0.28390110    -0.58300
N184        N  0.44555449  0.46827977  0.23213734    -0.05800
N185        N  0.41908680  0.46503179  0.22045409    -0.60400
N186        N  0.46872889  0.44551279  0.22848465    -0.05400
N187        N  0.45756906  0.42558974  0.21448975    -0.58300
N188        N  0.45336967  0.46285227  0.27653277    -0.05100
N189        N  0.43305561  0.45227001  0.29065133    -0.60800
C190        C  0.44549565  0.42154858  0.29526079     0.96000
C191        C  0.42670273  0.43848976  0.20947203     0.95800
N192        N  0.47237418  0.06575119  0.22968777    -0.06300
N193        N  0.46281459  0.08705540  0.21598661    -0.58900
N194        N  0.45483573  0.04770820  0.27704457    -0.04500
N195        N  0.43453076  0.06096859  0.29051496    -0.60100
N196        N  0.47973872  0.06837649  0.27370319    -0.06400
N197        N  0.47790669  0.09424115  0.28500783    -0.59100
N198        N  0.44786165  0.04444050  0.23277745    -0.04100
N199        N  0.42204562  0.04992038  0.22100152    -0.60200
Mn200      Mn  0.45057019  0.50557189  0.25536510     1.18400
C201        C  0.43134818  0.07649233  0.21062988     0.98100
C202        C  0.44985423  0.09026664  0.29545394     0.98800
N203        N  0.05431106  0.44438719  0.22546563    -0.06400
N204        N  0.06253422  0.42400961  0.21111993    -0.62700
N205        N  0.07531257  0.45842471  0.27321345    -0.05200
N206        N  0.09472933  0.44791738  0.28788724    -0.63400
N207        N  0.05157977  0.43642025  0.26954324    -0.05900
N208        N  0.05366236  0.41143155  0.28167324    -0.63000
N209        N  0.07925094  0.46524253  0.22875440    -0.04800
N210        N  0.10428528  0.46010958  0.21650818    -0.63700
Mn211      Mn  0.01268532  0.44105855  0.24692625     1.10700
C212        C  0.09353482  0.43469767  0.20547120     0.99300
C213        C  0.08021720  0.41877649  0.29316316     0.99400
N214        N  0.05470549  0.06837600  0.27282164    -0.05900
N215        N  0.05925852  0.09315634  0.28488425    -0.61300
N216        N  0.08065583  0.04231527  0.23112341    -0.05200
N217        N  0.10612313  0.04711079  0.21927201    -0.58000
N218        N  0.05711745  0.06521883  0.22875221    -0.06500
N219        N  0.06701361  0.08682370  0.21545471    -0.60800
N220        N  0.07781024  0.04511797  0.27546228    -0.05500
N221        N  0.09941418  0.05463155  0.28933796    -0.58000
Mn222      Mn  0.01550171  0.06778551  0.25038963     1.20200
Mn223      Mn  0.07951659  0.50145087  0.25270403     1.10100
Cl224      Cl  0.01436087  0.50326395  0.25123191    -0.86000
C225        C  0.08695111  0.08458305  0.29516959     0.96300
C226        C  0.09732740  0.07448106  0.20937499     0.96100
N227        N  0.47241290  0.16156050  0.97563748    -0.06200
N228        N  0.44508777  0.14320817  0.97281004    -0.58300
N229        N  0.04838311  0.17890673  0.96238838    -0.05800
N230        N  0.07553203  0.17753455  0.95149676    -0.60400
N231        N  0.04850067  0.15488035  0.97521602    -0.05400
N232        N  0.07640452  0.13666605  0.97336259    -0.58300
N233        N  0.47373067  0.18521806  0.96263649    -0.05100
N234        N  0.44781176  0.18333518  0.95060005    -0.60800
C235        C  0.43025425  0.15695555  0.95691184     0.96000
C236        C  0.09264422  0.15105920  0.95825701     0.95800
N237        N  0.05211527  0.27879353  0.97602113    -0.06300
N238        N  0.07735041  0.29918965  0.97215071    -0.58900
N239        N  0.47407938  0.26204308  0.96333160    -0.04500
N240        N  0.44974998  0.26577840  0.95038686    -0.60100
N241        N  0.47299353  0.28572702  0.97637648    -0.06400
N242        N  0.44743005  0.30613209  0.97233048    -0.59100
N243        N  0.05090754  0.25537398  0.96282311    -0.04100
N244        N  0.07497515  0.25932107  0.94989714    -0.60200
Mn245      Mn  0.01097308  0.21834686  0.96194920     1.18400
C246        C  0.09157548  0.28660749  0.95574041     0.98100
C247        C  0.43306625  0.29321570  0.95594401     0.98800
N248        N  0.04675548  0.15210145  0.02075564    -0.06400
N249        N  0.07099606  0.12998761  0.02400837    -0.62700
N250        N  0.47142120  0.18458862  0.03437227    -0.05200
N251        N  0.44486228  0.18246846  0.04573280    -0.63400
N252        N  0.47096953  0.16119469  0.02111034    -0.05900
N253        N  0.44396861  0.14235116  0.02328982    -0.63000
N254        N  0.04702632  0.17498390  0.03432368    -0.04800
N255        N  0.07118505  0.16891560  0.04715036    -0.63700
Mn256      Mn  0.00816309  0.15361854  0.99753791     1.10700
C257        C  0.08570439  0.14080887  0.04062870     0.99300
C258        C  0.42809853  0.15611652  0.03871115     0.99400
N259        N  0.47223997  0.28467918  0.02274649    -0.05900
N260        N  0.44583197  0.30430077  0.02606534    -0.61300
N261        N  0.05072572  0.25215284  0.03516245    -0.05200
N262        N  0.07616852  0.25340294  0.04763053    -0.58000
N263        N  0.05241097  0.27648842  0.02254339    -0.06500
N264        N  0.07941609  0.29485056  0.02640470    -0.60800
N265        N  0.47300086  0.26066642  0.03556452    -0.05500
N266        N  0.44752495  0.26330873  0.04767089    -0.58000
Mn267      Mn  0.01278304  0.28107731  0.99909113     1.20200
Mn268      Mn  0.01006232  0.21574880  0.03489737     1.10100
Cl269      Cl  0.01045972  0.21729811  0.99840934    -0.86000
C270        C  0.43056336  0.29054995  0.04175744     0.96300
C271        C  0.09425765  0.27984809  0.04205061     0.96100
N272        N  0.31122123  0.38563076  0.88257570    -0.36600
N273        N  0.25919260  0.36064855  0.90877596    -0.57200
N274        N  0.20610503  0.38689933  0.88256581    -0.36600
N275        N  0.25831805  0.40870692  0.85538323    -0.57200
C276        C  0.33136274  0.36949849  0.89553730     0.26900
C277        C  0.33083357  0.39444436  0.86736149     0.26900
C278        C  0.18661410  0.36964582  0.89510950     0.26900
C279        C  0.18629288  0.39531262  0.86710860     0.26900
C280        C  0.28685881  0.35013948  0.91884675     0.35600
C281        C  0.23172014  0.35013530  0.91864446     0.35600
C282        C  0.28593009  0.41969046  0.84575910     0.35600
C283        C  0.23065076  0.42042857  0.84576552     0.35600
C284        C  0.36442073  0.36903719  0.88867084    -0.21900
C285        C  0.36401903  0.38441799  0.87092602    -0.21900
C286        C  0.15370729  0.36823194  0.88780558    -0.21900
C287        C  0.15359601  0.38405713  0.87017033    -0.21900
C288        C  0.27685812  0.33248632  0.93505717    -0.23000
C289        C  0.24207902  0.33246181  0.93492996    -0.23000
C290        C  0.27568731  0.43834924  0.82985869    -0.23000
C291        C  0.24078259  0.43886873  0.82988347    -0.23000
C292        C  0.32111825  0.35454252  0.91325276    -0.18300
C293        C  0.32028742  0.41215939  0.85053502    -0.18300
C294        C  0.19634921  0.41330137  0.85036934    -0.18300
C295        C  0.19735352  0.35436358  0.91277813    -0.18300
H296        H  0.38670607  0.35847977  0.89558583     0.14600
H297        H  0.38589702  0.38798139  0.86175688     0.14600
H298        H  0.13192591  0.35656666  0.89431303     0.14600
H299        H  0.13177796  0.38689176  0.86066650     0.14600
H300        H  0.29293963  0.32037170  0.94572581     0.12900
H301        H  0.22624078  0.32031583  0.94550671     0.12900
H302        H  0.29170530  0.45026003  0.81927735     0.12900
H303        H  0.22469521  0.45119895  0.81930323     0.12900
H304        H  0.28608338  0.39220070  0.88456388     0.26100
H305        H  0.23080075  0.39450178  0.88507024     0.26100
N306        N  0.25887315  0.15698452  0.91540392    -0.36600
N307        N  0.20367605  0.14405279  0.87184141    -0.57200
N308        N  0.25589975  0.12700122  0.84441638    -0.36600
N309        N  0.30979590  0.14028399  0.87285195    -0.57200
C310        C  0.23149269  0.16974803  0.90615709     0.26900
C311        C  0.28609412  0.17069318  0.90683793     0.26900
C312        C  0.22825322  0.12910380  0.83253158     0.26900
C313        C  0.28384896  0.12656085  0.83299537     0.26900
C314        C  0.18492455  0.14654396  0.88814993     0.35600
C315        C  0.18314396  0.13287047  0.85766156     0.35600
C316        C  0.32988390  0.14303458  0.88882482     0.35600
C317        C  0.32885841  0.12650827  0.85881858     0.35600
C318        C  0.24128124  0.19311244  0.89262469    -0.21900
C319        C  0.27590333  0.19361480  0.89301408    -0.21900
C320        C  0.23887963  0.13060590  0.81339371    -0.21900
C321        C  0.27385755  0.12888934  0.81368011    -0.21900
C322        C  0.15169515  0.13759739  0.88423462    -0.23000
C323        C  0.15054656  0.12894699  0.86484060    -0.23000
C324        C  0.36211695  0.13111664  0.88488449    -0.23000
C325        C  0.36143935  0.12054522  0.86587177    -0.23000
C326        C  0.19928671  0.15537449  0.90634756    -0.18300
C327        C  0.31808646  0.15580294  0.90675020    -0.18300
C328        C  0.31789491  0.12141925  0.83941492    -0.18300
C329        C  0.19372556  0.12679893  0.83837646    -0.18300
H330        H  0.22510436  0.20618348  0.88239624     0.14600
H331        H  0.29195913  0.20675656  0.88296247     0.14600
H332        H  0.22298564  0.13175424  0.80052176     0.14600
H333        H  0.29008784  0.12852785  0.80105988     0.14600
H334        H  0.13051442  0.13743125  0.89414566     0.12900
H335        H  0.12832403  0.12049813  0.85701584     0.12900
H336        H  0.38400160  0.13056272  0.89444643     0.12900
H337        H  0.38269622  0.11009901  0.85806359     0.12900
H338        H  0.25911500  0.13636856  0.92453829     0.26100
H339        H  0.25569484  0.12200837  0.85924256     0.26100
N340        N  0.06979723  0.46726178  0.72251238    -0.06200
N341        N  0.09221281  0.44384385  0.71794576    -0.58300
N342        N  0.04490904  0.04394626  0.70789291    -0.05800
N343        N  0.04829641  0.06743351  0.69488339    -0.60400
N344        N  0.06962230  0.04512708  0.72071216    -0.05400
N345        N  0.09044361  0.06969992  0.71658001    -0.58300
N346        N  0.04437817  0.46668229  0.71011201    -0.05100
N347        N  0.04847574  0.44308871  0.69731530    -0.60800
C348        C  0.07834493  0.42899413  0.70196727     0.96000
C349        C  0.07686349  0.08332785  0.70022006     0.95800
N350        N  0.43970347  0.04339533  0.72071423    -0.06300
N351        N  0.41994183  0.06949494  0.71769266    -0.58900
N352        N  0.46420618  0.46624075  0.71098168    -0.04500
N353        N  0.46045618  0.44092765  0.69925068    -0.60100
N354        N  0.44080514  0.46631847  0.72447753    -0.06400
N355        N  0.42024342  0.44079374  0.72205074    -0.59100
N356        N  0.46309491  0.04152213  0.70725418    -0.04100
N357        N  0.45996612  0.06606733  0.69485132    -0.60200
Mn358      Mn  0.00404589  0.50320879  0.70911771     1.18400
C359        C  0.43287701  0.08314707  0.70137504     0.98100
C360        C  0.43302657  0.42526012  0.70617446     0.98800
N361        N  0.07000065  0.04950073  0.76620880    -0.06400
N362        N  0.09459266  0.07068537  0.76957622    -0.62700
N363        N  0.04900429  0.47466388  0.78352166    -0.05200
N364        N  0.06012155  0.45850464  0.79902809    -0.63400
N365        N  0.07183863  0.47305175  0.76958326    -0.05900
N366        N  0.09843746  0.45563903  0.77548461    -0.63000
N367        N  0.04697036  0.05136263  0.77995761    -0.04800
N368        N  0.05612954  0.07365294  0.79301344    -0.63700
Mn369      Mn  0.07055925  0.50768661  0.74462034     1.10700
C370        C  0.08577414  0.08597049  0.78626464     0.99300
C371        C  0.09075012  0.44611055  0.79376816     0.99400
N372        N  0.44224518  0.47276913  0.77095416    -0.05900
N373        N  0.41659603  0.45498008  0.77725905    -0.61300
N374        N  0.46498760  0.04807782  0.77976179    -0.05200
N375        N  0.45565340  0.06910699  0.79349130    -0.58000
N376        N  0.44124427  0.04658710  0.76626207    -0.06500
N377        N  0.41594082  0.06671633  0.77042632    -0.60800
N378        N  0.46590240  0.47509140  0.78453382    -0.05500
N379        N  0.45618160  0.45921297  0.80034280    -0.58000
Mn380      Mn  0.44046986  0.50702526  0.74605097     1.20200
Mn381      Mn  0.00672526  0.51139806  0.78263108     1.10100
Cl382      Cl  0.00555917  0.50660877  0.74570838    -0.86000
C383        C  0.42569490  0.44605538  0.79548819     0.96300
C384        C  0.42517325  0.08111173  0.78732491     0.96100
N385        N  0.25883611  0.12519579  0.09556844    -0.36600
N386        N  0.31248680  0.12793009  0.12411643    -0.57200
N387        N  0.26360903  0.13199516  0.15538859    -0.36600
N388        N  0.20997905  0.12779776  0.12569243    -0.57200
C389        C  0.28602196  0.11698373  0.08486206     0.26900
C390        C  0.23125587  0.11404195  0.08596706     0.26900
C391        C  0.29175670  0.12203509  0.16528270     0.26900
C392        C  0.23629099  0.12357745  0.16612214     0.26900
C393        C  0.33064134  0.13405609  0.10797077     0.35600
C394        C  0.33363844  0.13274635  0.13933727     0.35600
C395        C  0.18929119  0.13196855  0.11013004     0.35600
C396        C  0.19183743  0.13626759  0.14146343     0.35600
C397        C  0.27592138  0.10019823  0.06829105    -0.21900
C398        C  0.24113345  0.09799349  0.06909082    -0.21900
C399        C  0.28220728  0.10860647  0.18294491    -0.21900
C400        C  0.24721461  0.10936064  0.18341174    -0.21900
C401        C  0.36340820  0.14325254  0.11296010    -0.23000
C402        C  0.36547001  0.14179960  0.13287432    -0.23000
C403        C  0.15797609  0.14390095  0.11599681    -0.23000
C404        C  0.15941342  0.14609547  0.13591778    -0.23000
C405        C  0.31907849  0.12754214  0.08890683    -0.18300
C406        C  0.19756963  0.12143819  0.09114575    -0.18300
C407        C  0.20184894  0.12849156  0.16062841    -0.18300
C408        C  0.32572900  0.12435608  0.15861928    -0.18300
H409        H  0.29190125  0.09118149  0.05669061     0.14600
H410        H  0.22490305  0.08690999  0.05817733     0.14600
H411        H  0.29870024  0.09853073  0.19412606     0.14600
H412        H  0.23159718  0.10014657  0.19506819     0.14600
H413        H  0.38411150  0.14884117  0.10327188     0.12900
H414        H  0.38797431  0.14616400  0.14157854     0.12900
H415        H  0.13596340  0.14908467  0.10699822     0.12900
H416        H  0.13859699  0.15281179  0.14533532     0.12900
H417        H  0.25899787  0.14186791  0.10709043     0.26100
H418        H  0.26297702  0.14521076  0.14242319     0.26100
N419        N  0.26135216  0.38559981  0.15023667    -0.36600
N420        N  0.31365187  0.36595993  0.12326914    -0.57200
N421        N  0.26147253  0.34188056  0.09638286    -0.36600
N422        N  0.20897276  0.36367022  0.12251904    -0.57200
C423        C  0.28852020  0.40168019  0.15785864     0.26900
C424        C  0.23292653  0.39944449  0.15774387     0.26900
C425        C  0.28932736  0.33884583  0.08517239     0.26900
C426        C  0.23395224  0.33832802  0.08467604     0.26900
C427        C  0.33323794  0.37291359  0.13896771     0.35600
C428        C  0.33358228  0.34927467  0.11067098     0.35600
C429        C  0.18992575  0.36812269  0.13855701     0.35600
C430        C  0.18983297  0.34603180  0.10988167     0.35600
C431        C  0.27716370  0.42606561  0.17041535    -0.21900
C432        C  0.24210017  0.42476198  0.17027872    -0.21900
C433        C  0.27937633  0.33300995  0.06608828    -0.21900
C434        C  0.24445871  0.33275212  0.06578318    -0.21900
C435        C  0.36572186  0.36047261  0.13635918    -0.23000
C436        C  0.36615939  0.34625038  0.11826167    -0.23000
C437        C  0.15849822  0.35335974  0.13603689    -0.23000
C438        C  0.15838446  0.33954225  0.11782783    -0.23000
C439        C  0.32317747  0.39341680  0.15459207    -0.18300
C440        C  0.19926121  0.38797951  0.15464594    -0.18300
C441        C  0.19983275  0.33704519  0.09091281    -0.18300
C442        C  0.32333410  0.33817983  0.09200869    -0.18300
H443        H  0.29255416  0.44282268  0.17893167     0.14600
H444        H  0.22527987  0.44020574  0.17876201     0.14600
H445        H  0.29552121  0.32855990  0.05369915     0.14600
H446        H  0.22863621  0.32813863  0.05316759     0.14600
H447        H  0.38725116  0.36271723  0.14610952     0.12900
H448        H  0.38805390  0.33501360  0.11146136     0.12900
H449        H  0.13760820  0.35297640  0.14615861     0.12900
H450        H  0.13751141  0.32633880  0.11118103     0.12900
H451        H  0.26211724  0.36382917  0.14223069     0.26100
H452        H  0.26149223  0.34203277  0.11145120     0.26100
C453        C  0.13713483  0.07449758  0.80558657    -0.05800
C454        C  0.11261621  0.09761753  0.79963995     0.00100
C455        C  0.11517270  0.13078413  0.80576597    -0.08500
C456        C  0.14273566  0.13987310  0.81781320    -0.05800
C457        C  0.16733780  0.11659294  0.82387066     0.00100
C458        C  0.16445997  0.08328336  0.81768525    -0.08400
C459        C  0.18980943  0.05687048  0.82392541     0.62000
H460        H  0.13462978  0.04924814  0.80057682     0.12700
H461        H  0.14500435  0.16507455  0.82291298     0.12700
C462        C  0.08880921  0.15609911  0.79949902     0.62200
F463        F  0.17958183  0.02562915  0.81829337    -0.22900
F464        F  0.19352539  0.05693180  0.84391173    -0.20300
F465        F  0.22081564  0.06275319  0.81546462    -0.19900
F466        F  0.05726589  0.14685167  0.80623401    -0.20000
F467        F  0.08768317  0.15791124  0.77943486    -0.20300
F468        F  0.09600508  0.18723061  0.80668854    -0.23000
C469        C  0.36754254  0.13455128  0.81859070    -0.05800
C470        C  0.34410900  0.11098674  0.82505874     0.00100
C471        C  0.34787197  0.07756706  0.81931931    -0.08500
C472        C  0.37535862  0.06877961  0.80742827    -0.05800
C473        C  0.39875834  0.09227457  0.80101571     0.00100
C474        C  0.39483468  0.12568090  0.80647442    -0.08400
C475        C  0.41923219  0.15161640  0.79924500     0.62000
H476        H  0.36437667  0.15991329  0.82327684     0.12700
H477        H  0.37869200  0.04338122  0.80281957     0.12700
C478        C  0.32301053  0.05129586  0.82569367     0.62200
F479        F  0.41099432  0.18279856  0.80606158    -0.22900
F480        F  0.41842670  0.15241955  0.77915665    -0.20300
F481        F  0.45179472  0.14393014  0.80543486    -0.19900
F482        F  0.29125619  0.05814352  0.81809050    -0.20000
F483        F  0.32117881  0.05054716  0.84574533    -0.20300
F484        F  0.33250507  0.02023141  0.81925292    -0.23000
C485        C  0.16455873  0.40240371  0.81955632    -0.05800
C486        C  0.16926959  0.42271417  0.83589612     0.00100
C487        C  0.14795208  0.45069009  0.83841143    -0.08500
C488        C  0.12215929  0.45705662  0.82456431    -0.05800
C489        C  0.11751408  0.43680784  0.80817315     0.00100
C490        C  0.13911455  0.40908622  0.80553900    -0.08400
C491        C  0.13464055  0.38619222  0.78825778     0.62000
H492        H  0.18108239  0.38113240  0.81791831     0.12700
H493        H  0.10575198  0.47840321  0.82624375     0.12700
C494        C  0.15293259  0.47403079  0.85544091     0.62200
F495        F  0.15638051  0.35925516  0.78922760    -0.22900
F496        F  0.14126524  0.40300155  0.77124015    -0.20300
F497        F  0.10169705  0.37458254  0.78770848    -0.19900
F498        F  0.13113076  0.50093797  0.85444474    -0.20000
F499        F  0.18584131  0.48567726  0.85554467    -0.20300
F500        F  0.14696443  0.45769950  0.87269056    -0.23000
C501        C  0.35578292  0.39952650  0.82164597    -0.05800
C502        C  0.34733616  0.42182519  0.83648824     0.00100
C503        C  0.36603228  0.45140584  0.83856421    -0.08500
C504        C  0.39186844  0.45834862  0.82508209    -0.05800
C505        C  0.39993751  0.43624883  0.81002323     0.00100
C506        C  0.38215722  0.40607752  0.80848603    -0.08400
C507        C  0.39199285  0.38048062  0.79341264     0.62000
H508        H  0.34175860  0.37665621  0.82064961     0.12700
H509        H  0.40582079  0.48125853  0.82610466     0.12700
C510        C  0.35884723  0.47517244  0.85511812     0.62200
F511        F  0.37423647  0.35135640  0.79571629    -0.22900
F512        F  0.42626083  0.37330164  0.79513151    -0.20300
F513        F  0.38534496  0.39251384  0.77498076    -0.19900
F514        F  0.36577134  0.45994590  0.87267841    -0.20000
F515        F  0.32509817  0.48470745  0.85468871    -0.20300
F516        F  0.37858140  0.50327382  0.85399573    -0.23000
C517        C  0.17452094  0.13828248  0.05894290    -0.05800
C518        C  0.17060889  0.11933679  0.07590816     0.00100
C519        C  0.14088438  0.10014313  0.07813195    -0.08500
C520        C  0.11324515  0.10646272  0.06567607    -0.05800
C521        C  0.11660106  0.12718484  0.04952425     0.00100
C522        C  0.14854179  0.14044198  0.04495388    -0.08400
C523        C  0.15541635  0.15493500  0.02503031     0.62000
H524        H  0.19811714  0.15128054  0.05670071     0.12700
H525        H  0.08889350  0.09522793  0.06859749     0.12700
C526        C  0.13736438  0.07287383  0.09309518     0.62200
F527        F  0.18787761  0.16765723  0.02385506    -0.22900
F528        F  0.13256612  0.17983710  0.02054671    -0.20300
F529        F  0.15228198  0.13016522  0.01130405    -0.19900
F530        F  0.11537344  0.08283341  0.10754125    -0.20000
F531        F  0.16812978  0.06400031  0.10142380    -0.20300
F532        F  0.12428505  0.04502122  0.08418478    -0.23000
C533        C  0.36995745  0.16683840  0.04904986    -0.05800
C534        C  0.39689667  0.14423382  0.04764914     0.00100
C535        C  0.39588656  0.11394129  0.05780635    -0.08500
C536        C  0.36844940  0.10809817  0.07018779    -0.05800
C537        C  0.34276665  0.13176023  0.07260373     0.00100
C538        C  0.34234166  0.16087347  0.06124388    -0.08400
C539        C  0.31333535  0.18575106  0.06236403     0.62000
H540        H  0.37143635  0.18983039  0.04105209     0.12700
H541        H  0.36773372  0.08591637  0.07896549     0.12700
C542        C  0.42464496  0.08901640  0.05651338     0.62200
F543        F  0.31944791  0.21353304  0.05121934    -0.22900
F544        F  0.30857941  0.19582257  0.08134113    -0.20300
F545        F  0.28379477  0.17141187  0.05558406    -0.19900
F546        F  0.45475675  0.10344253  0.06238467    -0.20000
F547        F  0.42767046  0.07822526  0.03754689    -0.20300
F548        F  0.41909255  0.06175848  0.06818273    -0.23000
C549        C  0.12831446  0.32778007  0.05340558    -0.05800
C550        C  0.12313203  0.29346455  0.05371243     0.00100
C551        C  0.14461362  0.27342746  0.06572882    -0.08500
C552        C  0.16974775  0.28874993  0.07716951    -0.05800
C553        C  0.17376486  0.32303926  0.07739894     0.00100
C554        C  0.15292715  0.34301100  0.06532115    -0.08400
C555        C  0.15621395  0.38029358  0.06541160     0.62000
H556        H  0.11195668  0.34284581  0.04428625     0.12700
H557        H  0.18606690  0.27410339  0.08656515     0.12700
C558        C  0.14162079  0.23604512  0.06663861     0.62200
F559        F  0.13432902  0.39511241  0.05217566    -0.22900
F560        F  0.18897910  0.38905262  0.06067194    -0.20300
F561        F  0.14868742  0.39234916  0.08368126    -0.19900
F562        F  0.14100797  0.22326221  0.04807172    -0.20000
F563        F  0.11232437  0.22740418  0.07628338    -0.20300
F564        F  0.16874655  0.22158622  0.07639759    -0.23000
C565        C  0.38690037  0.28219752  0.06678469    -0.05800
C566        C  0.40086545  0.30361157  0.05281460     0.00100
C567        C  0.38733486  0.33609488  0.05098778    -0.08500
C568        C  0.36236816  0.34652889  0.06427644    -0.05800
C569        C  0.34981785  0.32536518  0.07863929     0.00100
C570        C  0.36151064  0.29238883  0.07967928    -0.08400
C571        C  0.34724729  0.26799862  0.09430188     0.62000
H572        H  0.39634244  0.25710236  0.06777637     0.12700
H573        H  0.35213858  0.37138673  0.06355990     0.12700
C574        C  0.39864861  0.35968601  0.03522175     0.62200
F575        F  0.36070484  0.23662361  0.09187479    -0.22900
F576        F  0.31240677  0.26608604  0.09212991    -0.20300
F577        F  0.35475787  0.27792737  0.11302132    -0.19900
F578        F  0.39251466  0.34578146  0.01718154    -0.20000
F579        F  0.43285191  0.36630647  0.03732597    -0.20300
F580        F  0.38127814  0.38948369  0.03597158    -0.23000
C581        C  0.13204029  0.33291880  0.95157311    -0.05800
C582        C  0.11936995  0.30272631  0.94449543     0.00100
C583        C  0.13293354  0.28967039  0.92682996    -0.08500
C584        C  0.15942219  0.30672165  0.91770544    -0.05800
C585        C  0.17096124  0.33723213  0.92449805     0.00100
C586        C  0.15692325  0.35091487  0.94156852    -0.08400
C587        C  0.16712023  0.38495060  0.94869800     0.62000
H588        H  0.12149565  0.34302011  0.96478999     0.12700
H589        H  0.17067682  0.29708834  0.90454231     0.12700
C590        C  0.11918465  0.25890451  0.91683654     0.62200
F591        F  0.15063292  0.39350587  0.96568987    -0.22900
F592        F  0.15887531  0.40816534  0.93468869    -0.20300
F593        F  0.20161838  0.38597672  0.95231186    -0.19900
F594        F  0.08541981  0.26376876  0.91194448    -0.20000
F595        F  0.12245909  0.23183329  0.92891097    -0.20300
F596        F  0.13631616  0.25163715  0.89983997    -0.23000
C597        C  0.36159161  0.30855511  0.91870010    -0.05800
C598        C  0.34821901  0.33849031  0.92537229     0.00100
C599        C  0.36240947  0.35351044  0.94208552    -0.08500
C600        C  0.38924818  0.33732679  0.95192279    -0.05800
C601        C  0.40366772  0.30777210  0.94492382     0.00100
C602        C  0.39009259  0.29357934  0.92747682    -0.08400
C603        C  0.40600705  0.26399548  0.91719135     0.62000
H604        H  0.35036367  0.29799119  0.90572441     0.12700
H605        H  0.39979486  0.34828945  0.96495386     0.12700
C606        C  0.34993314  0.38693799  0.94910423     0.62200
F607        F  0.38907710  0.25603421  0.90014356    -0.22900
F608        F  0.40526398  0.23645638  0.92895271    -0.20300
F609        F  0.43916715  0.27110268  0.91233358    -0.19900
F610        F  0.31626699  0.38499985  0.95442013    -0.20000
F611        F  0.35312190  0.40994341  0.93439448    -0.20300
F612        F  0.36832540  0.39797884  0.96501586    -0.23000
C613        C  0.16299559  0.11971546  0.92723201    -0.05800
C614        C  0.18083131  0.14958799  0.92503496     0.00100
C615        C  0.17607850  0.17493621  0.93916423    -0.08500
C616        C  0.14961825  0.17150970  0.95256299    -0.05800
C617        C  0.12760441  0.14456387  0.95191025     0.00100
C618        C  0.13554995  0.11719610  0.94014268    -0.08400
C619        C  0.11296682  0.08706522  0.93992787     0.62000
H620        H  0.16818382  0.09969167  0.91723037     0.12700
H621        H  0.14341887  0.19165650  0.96230392     0.12700
C622        C  0.19699172  0.20637336  0.93970898     0.62200
F623        F  0.12628755  0.06200775  0.92856798    -0.22900
F624        F  0.08129438  0.09549522  0.93261352    -0.20300
F625        F  0.10948716  0.07522302  0.95864962    -0.19900
F626        F  0.19433454  0.22301700  0.92223711    -0.19200
F627        F  0.23043635  0.19839602  0.94347040    -0.20300
F628        F  0.18659024  0.22780350  0.95420672    -0.23000
C629        C  0.35540975  0.12347509  0.92928049    -0.05800
C630        C  0.33899616  0.15365574  0.92496927     0.00100
C631        C  0.34685242  0.18189757  0.93649512    -0.08500
C632        C  0.37441716  0.17985783  0.94944122    -0.05800
C633        C  0.39496450  0.15167071  0.95050305     0.00100
C634        C  0.38411387  0.12218839  0.94158060    -0.08400
C635        C  0.40421472  0.09041222  0.94383636     0.62000
H636        H  0.34778288  0.10160386  0.92135320     0.12700
H637        H  0.38233100  0.20146662  0.95753624     0.12700
C638        C  0.32825527  0.21476946  0.93455922     0.62200
F639        F  0.38792223  0.06402195  0.93510641    -0.22900
F640        F  0.40835560  0.08321294  0.96334844    -0.20300
F641        F  0.43574773  0.09387345  0.93540507    -0.19900
F642        F  0.29464824  0.21082574  0.93936215    -0.20000
F643        F  0.33067050  0.22645571  0.91577706    -0.20300
F644        F  0.34136081  0.23865182  0.94687431    -0.23000
C645        C  0.35255778  0.39111343  0.18687765    -0.05800
C646        C  0.35012524  0.40574544  0.16840084     0.00100
C647        C  0.37399567  0.43038837  0.16322199    -0.08500
C648        C  0.39962859  0.43917304  0.17674335    -0.05800
C649        C  0.40212481  0.42439267  0.19515286     0.00100
C650        C  0.37791203  0.40030210  0.20044602    -0.08400
C651        C  0.37852366  0.38492423  0.22053564     0.62000
H652        H  0.33418200  0.37241455  0.19061650     0.12700
H653        H  0.41752264  0.45844570  0.17324655     0.12700
C654        C  0.37142268  0.44863809  0.14394995     0.62200
F655        F  0.35308956  0.36179696  0.22276386    -0.22900
F656        F  0.37403215  0.40920870  0.23443337    -0.20300
F657        F  0.40939028  0.36934625  0.22367453    -0.19900
F658        F  0.39665960  0.47202695  0.14209760    -0.20000
F659        F  0.34025824  0.46439199  0.14263282    -0.20300
F660        F  0.37468814  0.42716084  0.12852658    -0.23000
C661        C  0.14555346  0.41892265  0.16067070    -0.05800
C662        C  0.17158734  0.39854593  0.16812414     0.00100
C663        C  0.16856906  0.38558982  0.18717278    -0.08500
C664        C  0.14160159  0.39673915  0.19890001    -0.05800
C665        C  0.11627415  0.41792994  0.19156285     0.00100
C666        C  0.11706759  0.42752680  0.17186590    -0.08400
C667        C  0.08689782  0.44486673  0.16251339     0.62000
H668        H  0.14712896  0.42691796  0.14569140     0.12700
H669        H  0.14034079  0.38934329  0.21399947     0.12700
C670        C  0.19310090  0.35956004  0.19487988     0.62200
F671        F  0.09337413  0.45372729  0.14348086    -0.22900
F672        F  0.07837283  0.47307908  0.17267825    -0.20300
F673        F  0.05948791  0.42368731  0.16256965    -0.19900
F674        F  0.22480224  0.37313743  0.19776001    -0.20000
F675        F  0.19563320  0.33378656  0.18175147    -0.20300
F676        F  0.18233997  0.34660201  0.21238196    -0.23000
C677        C  0.39061832  0.06886444  0.18391350    -0.05800
C678        C  0.40812873  0.09123293  0.19583567     0.00100
C679        C  0.39909841  0.12516680  0.19521769    -0.08500
C680        C  0.37198206  0.13529691  0.18295948    -0.05800
C681        C  0.35421080  0.11258387  0.17133202     0.00100
C682        C  0.36409998  0.07892123  0.17147997    -0.08400
C683        C  0.34744187  0.05367490  0.15819977     0.62000
H684        H  0.39798412  0.04305510  0.18448679     0.12700
H685        H  0.36428288  0.16099554  0.18239208     0.12700
C686        C  0.41719296  0.15022658  0.20786430     0.62200
F687        F  0.35792620  0.02197887  0.16270427    -0.22900
F688        F  0.35601663  0.06018459  0.13914242    -0.20300
F689        F  0.31256282  0.05455828  0.15993965    -0.19900
F690        F  0.45108037  0.15136568  0.20284480    -0.20000
F691        F  0.41447324  0.14139725  0.22720042    -0.20300
F692        F  0.40360772  0.18161976  0.20564754    -0.23000
C693        C  0.13244839  0.12234227  0.19908944    -0.05800
C694        C  0.12094412  0.09007411  0.19556294     0.00100
C695        C  0.13566048  0.07122214  0.18041111    -0.08500
C696        C  0.16219748  0.08480090  0.16970531    -0.05800
C697        C  0.17454233  0.11644884  0.17360097     0.00100
C698        C  0.15940310  0.13589171  0.18829407    -0.08400
C699        C  0.17224578  0.17031554  0.19265799     0.62000
H700        H  0.12124027  0.13623094  0.21089005     0.12700
H701        H  0.17388991  0.07062677  0.15816083     0.12700
C702        C  0.12298410  0.03700398  0.17528100     0.62200
F703        F  0.15283402  0.18595095  0.20663731    -0.22900
F704        F  0.17123215  0.18932711  0.17597590    -0.20300
F705        F  0.20534402  0.16846254  0.19937883    -0.19900
F706        F  0.08797212  0.03775545  0.17379315    -0.20000
F707        F  0.13289613  0.01470017  0.18945142    -0.20300
F708        F  0.13570457  0.02600621  0.15771263    -0.23000
C709        C  0.09062582  0.15176720  0.66296153    -0.05800
C710        C  0.11687374  0.16976555  0.67160427     0.00100
C711        C  0.13173339  0.15832314  0.68912441    -0.08500
C712        C  0.11747761  0.13048001  0.69829437    -0.05800
C713        C  0.09089142  0.11236610  0.68961687     0.00100
C714        C  0.07878378  0.12219434  0.67090716    -0.08400
C715        C  0.05534605  0.10105167  0.65844611     0.62000
H716        H  0.08053563  0.16048379  0.64919212     0.12700
H717        H  0.12760436  0.12226707  0.71213919     0.12700
C718        C  0.16338488  0.17434801  0.69744896     0.62200
F719        F  0.05281750  0.11271674  0.63957415    -0.22900
F720        F  0.02302503  0.10091616  0.66610756    -0.20300
F721        F  0.06802889  0.06914477  0.65742749    -0.19900
F722        F  0.15658300  0.20665202  0.70262871    -0.20000
F723        F  0.18880683  0.17394027  0.68368528    -0.20300
F724        F  0.17529888  0.15785867  0.71376209    -0.23000
C725        C  0.12249746  0.38469189  0.69720212    -0.05800
C726        C  0.09354197  0.40163098  0.69017869     0.00100
C727        C  0.07937386  0.39180286  0.67187345    -0.08500
C728        C  0.09117366  0.36268212  0.66320352    -0.05800
C729        C  0.11905630  0.34527889  0.67055931     0.00100
C730        C  0.13640117  0.35737922  0.68710500    -0.08400
C731        C  0.16994713  0.34217497  0.69341656     0.62000
H732        H  0.13437815  0.39311650  0.71052098     0.12700
H733        H  0.07934433  0.35365910  0.64998398     0.12700
C734        C  0.05335873  0.41226560  0.66052998     0.62200
F735        F  0.18449231  0.35936239  0.70869472    -0.22900
F736        F  0.19242379  0.34261252  0.67805721    -0.20300
F737        F  0.16512256  0.30987694  0.69919483    -0.19900
F738        F  0.06358550  0.44489182  0.65975928    -0.20000
F739        F  0.02180029  0.41005617  0.66906696    -0.20300
F740        F  0.05000380  0.40152702  0.64150778    -0.23000
C741        C  0.38470973  0.14845956  0.67297736    -0.05800
C742        C  0.41110314  0.17051940  0.66906175     0.00100
C743        C  0.44343719  0.16573566  0.67771922    -0.08500
C744        C  0.44830343  0.13828035  0.68988112    -0.05800
C745        C  0.42259876  0.11501215  0.69278607     0.00100
C746        C  0.39004702  0.12029896  0.68456189    -0.08400
C747        C  0.36172933  0.09554886  0.68718557     0.62000
H748        H  0.36022477  0.15286803  0.66617957     0.12700
H749        H  0.47283213  0.13388660  0.69661091     0.12700
C750        C  0.47305286  0.18840034  0.67334506     0.62200
F751        F  0.33255167  0.10483815  0.67722109    -0.22900
F752        F  0.35392196  0.09301979  0.70667162    -0.20300
F753        F  0.37187616  0.06497148  0.68030728    -0.19900
F754        F  0.46605575  0.21998657  0.67977857    -0.20000
F755        F  0.47870874  0.18915290  0.65354697    -0.20300
F756        F  0.99989289  0.17477887  0.67321306    -0.23000
C757        C  0.38076852  0.36211021  0.67854551    -0.05800
C758        C  0.40683493  0.34090833  0.67227408     0.00100
C759        C  0.44023952  0.34497488  0.67953892    -0.08500
C760        C  0.44665891  0.37131307  0.69223278    -0.05800
C761        C  0.42123970  0.39395432  0.69747035     0.00100
C762        C  0.38742796  0.38878145  0.69116913    -0.08400
C763        C  0.35893590  0.41184194  0.69718439     0.62000
H764        H  0.35536373  0.35814941  0.67294638     0.12700
H765        H  0.47212667  0.37520886  0.69772815     0.12700
C766        C  0.46923772  0.32235037  0.67345480     0.62200
F767        F  0.32814197  0.40273933  0.68905311    -0.22900
F768        F  0.36593550  0.44372627  0.69129497    -0.20300
F769        F  0.35570040  0.41114580  0.71716942    -0.19900
F770        F  0.97480478  0.32285662  0.65025548    -0.20000
F771        F  0.46360424  0.29077293  0.68020153    -0.20300
F772        F  0.00430301  0.33200338  0.67759516    -0.23000
C773        C  0.31804692  0.12651740  0.56852527    -0.05800
C774        C  0.33585891  0.11657860  0.55178640     0.00100
C775        C  0.36403859  0.13581611  0.54572688    -0.08500
C776        C  0.37442085  0.16273683  0.55742834    -0.05800
C777        C  0.35723835  0.17131971  0.57451452     0.00100
C778        C  0.32799275  0.15358755  0.57988395    -0.08400
C779        C  0.30704311  0.16344618  0.59748159     0.62000
H780        H  0.29605844  0.11263673  0.57296078     0.12700
H781        H  0.39638662  0.17715840  0.55350435     0.12700
C782        C  0.38308905  0.12846627  0.52712149     0.62200
F783        F  0.27792779  0.14469112  0.59909110    -0.22900
F784        F  0.29741376  0.19625230  0.59593562    -0.20300
F785        F  0.32575285  0.15911830  0.61433117    -0.19900
F786        F  0.36074487  0.12874207  0.51153162    -0.20000
F787        F  0.39882018  0.09793077  0.52847528    -0.20300
F788        F  0.40786044  0.15173569  0.52349013    -0.23000
C789        C  0.31378780  0.38425375  0.56549335    -0.05800
C790        C  0.33672060  0.40097636  0.55343841     0.00100
C791        C  0.37100107  0.38992652  0.55269730    -0.08500
C792        C  0.38047698  0.36167062  0.56352795    -0.05800
C793        C  0.35748531  0.34578976  0.57584640     0.00100
C794        C  0.32386270  0.35774019  0.57729507    -0.08400
C795        C  0.29916133  0.34361900  0.59196215     0.62000
H796        H  0.28775469  0.39283060  0.56615003     0.12700
H797        H  0.40630912  0.35243310  0.56310457     0.12700
C798        C  0.39785560  0.40851251  0.54147465     0.62200
F799        F  0.26806638  0.35968818  0.59135618    -0.22900
F800        F  0.31223967  0.34717998  0.61052172    -0.20300
F801        F  0.29377483  0.31050908  0.58831155    -0.19900
F802        F  0.39796134  0.44135122  0.54704746    -0.20000
F803        F  0.39123640  0.40631074  0.52178831    -0.20300
F804        F  0.43006831  0.39583455  0.54487617    -0.23000
C805        C  0.19591547  0.13705515  0.55805411    -0.05800
C806        C  0.17066153  0.11419146  0.55306510     0.00100
C807        C  0.13664392  0.12007882  0.55875069    -0.08500
C808        C  0.12947394  0.14815798  0.57015036    -0.05800
C809        C  0.15518823  0.16995300  0.57588895     0.00100
C810        C  0.18876615  0.16500067  0.56937747    -0.08400
C811        C  0.21709803  0.18854795  0.57495128     0.62000
H812        H  0.22173624  0.13221533  0.55349939     0.12700
H813        H  0.10399380  0.15269012  0.57535738     0.12700
C814        C  0.10853971  0.09596500  0.55384800     0.62200
F815        F  0.24765971  0.17947415  0.56666713    -0.22900
F816        F  0.22135172  0.18896143  0.59489932    -0.20300
F817        F  0.20921159  0.22005937  0.56864812    -0.19900
F818        F  0.11659508  0.06509069  0.56120569    -0.20000
F819        F  0.10455986  0.09390387  0.53391865    -0.20300
F820        F  0.07775221  0.10569924  0.56163608    -0.23000
C821        C  0.12903361  0.36416279  0.57180339    -0.05800
C822        C  0.15398482  0.33965356  0.57424718     0.00100
C823        C  0.18596657  0.34319574  0.56525834    -0.08500
C824        C  0.19272025  0.37261979  0.55522047    -0.05800
C825        C  0.16836721  0.39789532  0.55358890     0.00100
C826        C  0.13566384  0.39345351  0.56155477    -0.08400
C827        C  0.10869242  0.42027992  0.56034646     0.62000
H828        H  0.10487790  0.36083568  0.57893838     0.12700
H829        H  0.21744451  0.37646264  0.54884138     0.12700
C830        C  0.21306554  0.31644312  0.56666457     0.62200
F831        F  0.07925823  0.41134967  0.56984082    -0.22900
F832        F  0.10049004  0.42636314  0.54112277    -0.20300
F833        F  0.12071101  0.44893930  0.56881961    -0.19900
F834        F  0.20182973  0.28815777  0.55753293    -0.20000
F835        F  0.22017964  0.30937533  0.58591990    -0.20300
F836        F  0.24290856  0.32581697  0.55777587    -0.23000
C837        C  0.12960399  0.16010529  0.31708582    -0.05800
C838        C  0.11296573  0.16232332  0.33503571     0.00100
C839        C  0.09057952  0.13650254  0.34053430    -0.08500
C840        C  0.08611765  0.10935160  0.32790216    -0.05800
C841        C  0.10170774  0.10776692  0.30967714     0.00100
C842        C  0.12355883  0.13372622  0.30406404    -0.08400
C843        C  0.13906926  0.13423947  0.28397540     0.62000
H844        H  0.14647909  0.17993365  0.31305620     0.12700
H845        H  0.06885107  0.08974873  0.33175806     0.12700
C846        C  0.06980499  0.13825171  0.35909692     0.62200
F847        F  0.16133392  0.16027873  0.28175915    -0.22900
F848        F  0.11367245  0.13743586  0.27012283    -0.20300
F849        F  0.15670792  0.10514164  0.28078747    -0.19900
F850        F  0.04426551  0.11491752  0.35922530    -0.20000
F851        F  0.05475163  0.16904743  0.36087417    -0.20300
F852        F  0.09024858  0.13243114  0.37508305    -0.23000
C853        C  0.12022328  0.37519009  0.30464219    -0.05800
C854        C  0.09193787  0.39537839  0.30839836     0.00100
C855        C  0.07095570  0.38803267  0.32444309    -0.08500
C856        C  0.07793094  0.35961844  0.33560629    -0.05800
C857        C  0.10565613  0.33880282  0.33159557     0.00100
C858        C  0.12784540  0.34722099  0.31623181    -0.08400
C859        C  0.15958518  0.32700358  0.31227609     0.62000
H860        H  0.13568472  0.38090416  0.29215235     0.12700
H861        H  0.06208523  0.35365739  0.34789976     0.12700
C862        C  0.04196706  0.41091864  0.33010634     0.62200
F863        F  0.17867208  0.34052070  0.29749198    -0.22900
F864        F  0.15081446  0.29531095  0.30687084    -0.20300
F865        F  0.17964706  0.32566765  0.32882430    -0.19900
F866        F  0.01770255  0.41200006  0.31557609    -0.20000
F867        F  0.05438518  0.44240983  0.33307497    -0.20300
F868        F  0.02633084  0.40076547  0.34701846    -0.23000
C869        C  0.17959910  0.17337424  0.44105732    -0.05800
C870        C  0.14763780  0.17156069  0.43205617     0.00100
C871        C  0.12600653  0.14458595  0.43607521    -0.08500
C872        C  0.13856902  0.11865939  0.44758015    -0.05800
C873        C  0.17148786  0.11929452  0.45525689     0.00100
C874        C  0.19196217  0.14756399  0.45276724    -0.08400
C875        C  0.22678259  0.15030703  0.46220061     0.62000
H876        H  0.19548385  0.19448620  0.43802254     0.12700
H877        H  0.12296934  0.09704957  0.44991763     0.12700
C878        C  0.08992492  0.14145332  0.42852776     0.62200
F879        F  0.23955447  0.18200242  0.46076527    -0.22900
F880        F  0.24923352  0.12900189  0.45324561    -0.20300
F881        F  0.22482023  0.14238387  0.48170749    -0.19900
F882        F  0.08792483  0.11451282  0.41622901    -0.20000
F883        F  0.07858632  0.16911973  0.41863960    -0.20300
F884        F  0.06844749  0.13640566  0.44405489    -0.23000
C885        C  0.11863380  0.36187473  0.43722357    -0.05800
C886        C  0.14376988  0.34034300  0.43024864     0.00100
C887        C  0.17804219  0.34492860  0.43583570    -0.08500
C888        C  0.18632385  0.37248072  0.44726565    -0.05800
C889        C  0.16157761  0.39527325  0.45333411     0.00100
C890        C  0.12693507  0.38940470  0.44885884    -0.08400
C891        C  0.09912925  0.41281781  0.45546314     0.62000
H892        H  0.09257488  0.35749464  0.43288874     0.12700
H893        H  0.21261417  0.37715087  0.45100423     0.12700
C894        C  0.20592145  0.32156354  0.42909490     0.62200
F895        F  0.06749602  0.40327077  0.44869384    -0.22900
F896        F  0.10537806  0.44429084  0.44860845    -0.20300
F897        F  0.09808693  0.41336874  0.47553320    -0.19900
F898        F  0.20771994  0.32192012  0.40904830    -0.20000
F899        F  0.19922236  0.28980054  0.43525886    -0.20300
F900        F  0.23737303  0.33035469  0.43646543    -0.23000
C901        C  0.40714808  0.11285626  0.31926038    -0.05800
C902        C  0.43639748  0.11792627  0.30806813     0.00100
C903        C  0.45241524  0.14980080  0.30917628    -0.08500
C904        C  0.44013984  0.17329881  0.32243261    -0.05800
C905        C  0.41097209  0.16837006  0.33336891     0.00100
C906        C  0.39345903  0.13783646  0.33138795    -0.08400
C907        C  0.36025286  0.13022983  0.34143327     0.62000
H908        H  0.39438205  0.08926665  0.31829937     0.12700
H909        H  0.45345136  0.19638005  0.32446405     0.12700
C910        C  0.48192975  0.16056293  0.29640713     0.62200
F911        F  0.33686999  0.11944986  0.32778517    -0.22900
F912        F  0.34628442  0.15726489  0.35073056    -0.20300
F913        F  0.36557216  0.10540071  0.35492586    -0.19900
F914        F  0.47315184  0.15711946  0.27701644    -0.20000
F915        F  0.51062834  0.14211429  0.30069325    -0.20300
F916        F  0.49035964  0.19342805  0.29915251    -0.23000
C917        C  0.38884391  0.36667904  0.32755136    -0.05800
C918        C  0.41212163  0.34150236  0.33269591     0.00100
C919        C  0.44614066  0.34411332  0.32650759    -0.08500
C920        C  0.45522270  0.37092823  0.31471473    -0.05800
C921        C  0.43222343  0.39628207  0.30933584     0.00100
C922        C  0.39836673  0.39432321  0.31614942    -0.08400
C923        C  0.37251511  0.42111494  0.31162629     0.62000
H924        H  0.36321562  0.36481866  0.33300049     0.12700
H925        H  0.48101561  0.37211686  0.30955601     0.12700
C926        C  0.47324160  0.31932709  0.33285265     0.62200
F927        F  0.34085308  0.41368591  0.31898596    -0.22900
F928        F  0.36916261  0.42495443  0.29174412    -0.20300
F929        F  0.38301979  0.45052825  0.31985946    -0.19900
F930        F  0.46584627  0.28837855  0.32559534    -0.20000
F931        F  0.47469933  0.31786713  0.35290975    -0.20300
F932        F  0.50516113  0.32784427  0.32628308    -0.23000
C933        C  0.36036870  0.13222383  0.45585381    -0.05800
C934        C  0.33680254  0.11177488  0.44627820     0.00100
C935        C  0.32783943  0.11892119  0.42661024    -0.08500
C936        C  0.34033777  0.14778273  0.41810769    -0.05800
C937        C  0.36347891  0.16829506  0.42768355     0.00100
C938        C  0.37469343  0.15998835  0.44667274    -0.08400
C939        C  0.40252738  0.17930143  0.45685053     0.62000
H940        H  0.36770985  0.12617065  0.47061413     0.12700
H941        H  0.33267709  0.15438301  0.40345873     0.12700
C942        C  0.30678784  0.09583694  0.41394386     0.62200
F943        F  0.41200413  0.16480094  0.47430008    -0.22900
F944        F  0.39165623  0.21107516  0.46073810    -0.20300
F945        F  0.43086065  0.18051994  0.44513797    -0.19900
F946        F  0.27328832  0.09630745  0.41975156    -0.20000
F947        F  0.31970816  0.06404702  0.41514542    -0.20300
F948        F  0.30741599  0.10493124  0.39454844    -0.23000
C949        C  0.36784799  0.35068382  0.44342117    -0.05800
C950        C  0.35044198  0.34214729  0.42633589     0.00100
C951        C  0.32020686  0.35895102  0.42124015    -0.08500
C952        C  0.30989058  0.38582821  0.43263391    -0.05800
C953        C  0.32803616  0.39586913  0.44932916     0.00100
C954        C  0.35676361  0.37690024  0.45536753    -0.08400
C955        C  0.37522993  0.38332328  0.47439435     0.62000
H956        H  0.39039601  0.33662857  0.44722852     0.12700
H957        H  0.28734265  0.39937741  0.42830913     0.12700
C958        C  0.29867298  0.34825120  0.40395664     0.62200
F959        F  0.39972407  0.35949348  0.47822545    -0.22900
F960        F  0.35228855  0.38282678  0.48951506    -0.20300
F961        F  0.39117930  0.41361959  0.47374146    -0.19900
F962        F  0.29095193  0.31509117  0.40558390    -0.20000
F963        F  0.31610649  0.35337366  0.38688879    -0.20300
F964        F  0.26840026  0.36570922  0.40283891    -0.23000
N965        N  0.38405335  0.80465021  0.37893822    -0.36600
N966        N  0.37240676  0.75476053  0.40887277    -0.57200
N967        N  0.38673099  0.70466200  0.37997386    -0.36600
N968        N  0.40027846  0.75446363  0.35081771    -0.57200
C969        C  0.38228532  0.82319021  0.39522408     0.26900
C970        C  0.39859766  0.82345415  0.36507503     0.26900
C971        C  0.38754983  0.68694638  0.39662771     0.26900
C972        C  0.40207290  0.68621251  0.36618884     0.26900
C973        C  0.35773632  0.78132340  0.41727102     0.35600
C974        C  0.35976287  0.72791366  0.41789155     0.35600
C975        C  0.40068849  0.78111361  0.33894580     0.35600
C976        C  0.40081618  0.72734827  0.33934582     0.35600
C977        C  0.39581510  0.85414124  0.39173157    -0.21900
C978        C  0.40614671  0.85430788  0.37270555    -0.21900
C979        C  0.40382158  0.65701467  0.39345920    -0.21900
C980        C  0.41321165  0.65662147  0.37425838    -0.21900
C981        C  0.33617346  0.77141724  0.43196134    -0.23000
C982        C  0.33720491  0.73743158  0.43222656    -0.23000
C983        C  0.40166173  0.77090403  0.31974922    -0.23000
C984        C  0.40166740  0.73683575  0.31999403    -0.23000
C985        C  0.36468230  0.81434771  0.41220642    -0.18300
C986        C  0.40323931  0.81427903  0.34541957    -0.18300
C987        C  0.40397076  0.69440070  0.34625251    -0.18300
C988        C  0.36963499  0.69514362  0.41367027    -0.18300
H989        H  0.39709403  0.87480555  0.40168421     0.14600
H990        H  0.41726047  0.87508291  0.36523623     0.14600
H991        H  0.40755358  0.63713744  0.40378241     0.14600
H992        H  0.42591725  0.63641338  0.36695226     0.14600
H993        H  0.32110547  0.78703275  0.44136215     0.12900
H994        H  0.32325212  0.72156932  0.44194288     0.12900
H995        H  0.40298904  0.78637779  0.30696285     0.12900
H996        H  0.40300578  0.72088478  0.30740017     0.12900
H997        H  0.37178349  0.78229087  0.37679540     0.26100
H998        H  0.37218558  0.72576977  0.37747932     0.26100
N999        N  0.13333209  0.80391113  0.37730482    -0.36600
N1000       N  0.12755370  0.75168903  0.34788365    -0.57200
N1001       N  0.13177156  0.70417843  0.37927375    -0.36600
N1002       N  0.13793156  0.75591786  0.40789885    -0.57200
C1003       C  0.13759878  0.82091004  0.36064217     0.26900
C1004       C  0.14492782  0.82299776  0.39205858     0.26900
C1005       C  0.13747075  0.68534587  0.36339476     0.26900
C1006       C  0.14438064  0.68761009  0.39479006     0.26900
C1007       C  0.11705200  0.77822235  0.33740854     0.35600
C1008       C  0.11646481  0.72427462  0.33848895     0.35600
C1009       C  0.13574792  0.78335400  0.41891803     0.35600
C1010       C  0.13416474  0.73002492  0.41995827     0.35600
C1011       C  0.15201882  0.85132855  0.36483093    -0.21900
C1012       C  0.15663814  0.85264237  0.38463502    -0.21900
C1013       C  0.15454999  0.65673090  0.36878582    -0.21900
C1014       C  0.15894705  0.65815102  0.38863450    -0.21900
C1015       C  0.09931766  0.76760705  0.32111134    -0.23000
C1016       C  0.09906824  0.73341596  0.32175360    -0.23000
C1017       C  0.13020939  0.77493629  0.43814520    -0.23000
C1018       C  0.12904577  0.74099169  0.43879358    -0.23000
C1019       C  0.12474186  0.81159836  0.34217613    -0.18300
C1020       C  0.14346288  0.81521536  0.41211836    -0.18300
C1021       C  0.14018370  0.69702900  0.41444357    -0.18300
C1022       C  0.12327346  0.69138169  0.34480876    -0.18300
H1023       H  0.15778668  0.87090677  0.35468935     0.14600
H1024       H  0.16684550  0.87334877  0.39267746     0.14600
H1025       H  0.16182010  0.63638225  0.35946708     0.14600
H1026       H  0.17048569  0.63914478  0.39759372     0.14600
H1027       H  0.08797343  0.78289356  0.30989354     0.12900
H1028       H  0.08740074  0.71720857  0.31117272     0.12900
H1029       H  0.12851466  0.79143884  0.45047603     0.12900
H1030       H  0.12630886  0.72608583  0.45173091     0.12900
H1031       H  0.11909464  0.78204522  0.37864617     0.26100
H1032       H  0.11554811  0.72492365  0.37981798     0.26100
N1033       N  0.31549959  0.96746503  0.47703373    -0.06200
N1034       N  0.33512058  0.94147243  0.47359948    -0.58300
N1035       N  0.28434008  0.54322576  0.46390708    -0.05800
N1036       N  0.28697193  0.56664705  0.45079954    -0.60400
N1037       N  0.30964972  0.54455404  0.47639810    -0.05400
N1038       N  0.33014042  0.56917690  0.47183022    -0.58300
N1039       N  0.29053891  0.96846744  0.46428245    -0.05100
N1040       N  0.29260288  0.94358792  0.45209216    -0.60800
C1041       C  0.32044532  0.92669202  0.45793537     0.96000
C1042       C  0.31564098  0.58267995  0.45565516     0.95800
N1043       N  0.18259276  0.54509485  0.47955635    -0.06300
N1044       N  0.16447666  0.57267262  0.47820645    -0.58900
N1045       N  0.21215619  0.96795003  0.46518750    -0.04500
N1046       N  0.20955451  0.94245526  0.45339076    -0.60100
N1047       N  0.18850216  0.96705345  0.47853649    -0.06400
N1048       N  0.16909911  0.94074228  0.47596460    -0.59100
N1049       N  0.20603845  0.54440540  0.46605669    -0.04100
N1050       N  0.20461928  0.57137353  0.45538117    -0.60200
Mn1051     Mn  0.24494139  0.50567488  0.46485868     1.18400
C1052       C  0.17890031  0.58889756  0.46317807     0.98100
C1053       C  0.18254490  0.92572212  0.46011122     0.98800
N1054       N  0.31277016  0.54679326  0.52272987    -0.06400
N1055       N  0.33329300  0.57224385  0.52567363    -0.62700
N1056       N  0.29465666  0.96841592  0.53656144    -0.05200
N1057       N  0.29879059  0.94441959  0.54915960    -0.63400
N1058       N  0.31850899  0.96749946  0.52332599    -0.05900
N1059       N  0.33946857  0.94233613  0.52679724    -0.63000
N1060       N  0.28916497  0.54630611  0.53613738    -0.04800
N1061       N  0.29303071  0.57110706  0.54824803    -0.63700
Mn1062     Mn  0.31318247  0.50737189  0.50009373     1.10700
C1063       C  0.32053811  0.58737757  0.54173102     0.99300
C1064       C  0.32670709  0.92813868  0.54309462     0.99400
N1065       N  0.19080970  0.96665592  0.52426594    -0.05900
N1066       N  0.17101761  0.94088526  0.52716888    -0.61300
N1067       N  0.21009526  0.54542629  0.53754329    -0.05200
N1068       N  0.20745138  0.57096733  0.54922870    -0.58000
N1069       N  0.18501590  0.54525595  0.52487028    -0.06500
N1070       N  0.16465414  0.57084656  0.52768990    -0.60800
N1071       N  0.21572515  0.96701768  0.53707825    -0.05500
N1072       N  0.21359812  0.94156603  0.54887413    -0.58000
Mn1073     Mn  0.18231516  0.50676495  0.50248977     1.20200
Mn1074     Mn  0.25017020  0.50801585  0.53782839     1.10100
Cl1075     Cl  0.24772389  0.50684533  0.50134270    -0.86000
C1076       C  0.18559534  0.92560764  0.54263619     0.96300
C1077       C  0.17898172  0.58648001  0.54303675     0.96100
N1078       N  0.38262686  0.80583708  0.62490567    -0.36600
N1079       N  0.37502564  0.75725415  0.59362998    -0.57200
N1080       N  0.38648899  0.70650609  0.62204473    -0.36600
N1081       N  0.39539588  0.75463844  0.65269634    -0.57200
C1082       C  0.38454557  0.82511962  0.60893381     0.26900
C1083       C  0.39478103  0.82358103  0.64008990     0.26900
C1084       C  0.38728041  0.68893556  0.60536461     0.26900
C1085       C  0.40134438  0.68778225  0.63597561     0.26900
C1086       C  0.36407454  0.78467033  0.58431026     0.35600
C1087       C  0.36349405  0.73117755  0.58326767     0.35600
C1088       C  0.39118220  0.78000895  0.66510457     0.35600
C1089       C  0.39462243  0.72693094  0.66343159     0.35600
C1090       C  0.39781341  0.85560313  0.61402048    -0.21900
C1091       C  0.40447418  0.85456785  0.63366922    -0.21900
C1092       C  0.40298532  0.65872426  0.60863457    -0.21900
C1093       C  0.41209407  0.65806263  0.62797708    -0.21900
C1094       C  0.34641658  0.77601417  0.56757671    -0.23000
C1095       C  0.34582405  0.74202676  0.56700385    -0.23000
C1096       C  0.38736187  0.76845819  0.68390383    -0.23000
C1097       C  0.38974847  0.73460476  0.68285661    -0.23000
C1098       C  0.37055481  0.81733120  0.59053957    -0.18300
C1099       C  0.39526652  0.81318713  0.65974358    -0.18300
C1100       C  0.40185862  0.69535130  0.65602251    -0.18300
C1101       C  0.36994661  0.69782670  0.58814721    -0.18300
H1102       H  0.40157263  0.87667585  0.60462830     0.14600
H1103       H  0.41461869  0.87460926  0.64230210     0.14600
H1104       H  0.40641111  0.63884156  0.59830530     0.14600
H1105       H  0.42400432  0.63750140  0.63546857     0.14600
H1106       H  0.33487601  0.79245961  0.55700901     0.12900
H1107       H  0.33393060  0.72706531  0.55587836     0.12900
H1108       H  0.38467500  0.78295853  0.69702245     0.12900
H1109       H  0.38906727  0.71767924  0.69501341     0.12900
H1110       H  0.36948526  0.78371832  0.62577660     0.26100
H1111       H  0.37183309  0.72752919  0.62438726     0.26100
N1112       N  0.13962793  0.80616200  0.62559069    -0.36600
N1113       N  0.13155382  0.75591391  0.65533412    -0.57200
N1114       N  0.13461433  0.70722359  0.62408880    -0.36600
N1115       N  0.14320595  0.75737739  0.59533693    -0.57200
C1116       C  0.14431614  0.82360663  0.64213796     0.26900
C1117       C  0.15205487  0.82435244  0.61078504     0.26900
C1118       C  0.13763805  0.68847331  0.64021860     0.26900
C1119       C  0.14643326  0.68907401  0.60906405     0.26900
C1120       C  0.12047750  0.78294678  0.66497807     0.35600
C1121       C  0.11711151  0.72953917  0.66393482     0.35600
C1122       C  0.14100228  0.78450915  0.58415755     0.35600
C1123       C  0.13938464  0.73132250  0.58342337     0.35600
C1124       C  0.15990250  0.85330248  0.63783942    -0.21900
C1125       C  0.16501093  0.85369006  0.61805379    -0.21900
C1126       C  0.15154958  0.65802405  0.63547287    -0.21900
C1127       C  0.15728646  0.65844696  0.61578301    -0.21900
C1128       C  0.09932933  0.77371103  0.68001819    -0.23000
C1129       C  0.09711380  0.73974604  0.67931754    -0.23000
C1130       C  0.13518833  0.77575883  0.56493742    -0.23000
C1131       C  0.13434594  0.74181294  0.56446102    -0.23000
C1132       C  0.12978964  0.81563924  0.66027208    -0.18300
C1133       C  0.14943916  0.81623850  0.59079737    -0.18300
C1134       C  0.14523178  0.69861503  0.58931194    -0.18300
C1135       C  0.12320494  0.69647599  0.65831856    -0.18300
H1136       H  0.16585259  0.87308798  0.64785449     0.14600
H1137       H  0.17597889  0.87376219  0.60988100     0.14600
H1138       H  0.15603577  0.63732165  0.64511811     0.14600
H1139       H  0.16734914  0.63815887  0.60730598     0.14600
H1140       H  0.08668897  0.78975666  0.69029593     0.12900
H1141       H  0.08258186  0.72433179  0.68900180     0.12900
H1142       H  0.13362968  0.79201888  0.55248139     0.12900
H1143       H  0.13184977  0.72661096  0.55159984     0.12900
H1144       H  0.12431070  0.78546618  0.62421472     0.26100
H1145       H  0.12069828  0.72907262  0.62309357     0.26100
N1146       N  0.47538079  0.93959866  0.27176841    -0.06200
N1147       N  0.47108532  0.91342853  0.28267672    -0.58300
N1148       N  0.44559889  0.96931719  0.23154344    -0.05800
N1149       N  0.41953001  0.96651713  0.21956712    -0.60400
N1150       N  0.46885228  0.94661842  0.22786634    -0.05400
N1151       N  0.45805718  0.92713420  0.21358245    -0.58300
N1152       N  0.45261855  0.96262242  0.27571602    -0.05100
N1153       N  0.43160622  0.95141446  0.28930252    -0.60800
C1154       C  0.44396531  0.92062161  0.29363593     0.96000
C1155       C  0.42744905  0.94035959  0.20838015     0.95800
N1156       N  0.47471041  0.56426703  0.22928163    -0.06300
N1157       N  0.46570448  0.58516186  0.21527763    -0.58900
N1158       N  0.45731220  0.54741483  0.27690704    -0.04500
N1159       N  0.43825949  0.56001873  0.29111174    -0.60100
N1160       N  0.48178078  0.56831090  0.27305505    -0.06400
N1161       N  0.48070903  0.59392591  0.28455030    -0.59100
N1162       N  0.44985383  0.54338716  0.23255159    -0.04100
N1163       N  0.42435219  0.54869490  0.22052422    -0.60200
Mn1164     Mn  0.44940674  0.00596027  0.25510658     1.18400
C1165       C  0.43427816  0.57471536  0.20987728     0.98100
C1166       C  0.45401605  0.58907838  0.29596743     0.98800
N1167       N  0.05478462  0.94528850  0.22696095    -0.06400
N1168       N  0.06340039  0.92403474  0.21312345    -0.62700
N1169       N  0.07629476  0.96149651  0.27414523    -0.05200
N1170       N  0.09794779  0.95048606  0.28759768    -0.63400
N1171       N  0.05261590  0.93920816  0.27100011    -0.05900
N1172       N  0.05693734  0.91347941  0.28240476    -0.63000
N1173       N  0.07962376  0.96640526  0.22996751    -0.04800
N1174       N  0.10501581  0.96048508  0.21807086    -0.63700
Mn1175     Mn  0.01312526  0.94281793  0.24855697     1.10700
C1176       C  0.09464557  0.93426578  0.20757811     0.99300
C1177       C  0.08491220  0.92069771  0.29277837     0.99400
N1178       N  0.05537267  0.56499097  0.27329349    -0.05900
N1179       N  0.06073289  0.58965354  0.28530359    -0.61300
N1180       N  0.08118158  0.54116707  0.23101772    -0.05200
N1181       N  0.10656885  0.54675808  0.21917254    -0.58000
N1182       N  0.05760156  0.56420018  0.22919643    -0.06500
N1183       N  0.06733140  0.58659949  0.21631172    -0.60800
N1184       N  0.07874138  0.54181242  0.27530229    -0.05500
N1185       N  0.10141014  0.55132475  0.28861027    -0.58000
Mn1186     Mn  0.01597282  0.56572565  0.25098777     1.20200
Mn1187     Mn  0.07936865  0.00379596  0.25333104     1.10100
Cl1188     Cl  0.01432896  0.00516498  0.25176378    -0.86000
C1189       C  0.08922736  0.58113129  0.29484082     0.96300
C1190       C  0.09762899  0.57477385  0.20988866     0.96100
N1191       N  0.46962500  0.65909150  0.97603436    -0.06200
N1192       N  0.44078630  0.64276204  0.97372340    -0.58300
N1193       N  0.04970637  0.68672237  0.96186250    -0.05800
N1194       N  0.07625403  0.68583665  0.95048692    -0.60400
N1195       N  0.05165315  0.66339424  0.97509636    -0.05400
N1196       N  0.08017084  0.64620840  0.97304723    -0.58300
N1197       N  0.47162457  0.68293058  0.96315033    -0.05100
N1198       N  0.44472330  0.68333125  0.95181914    -0.60800
C1199       C  0.42581475  0.65816364  0.95836588     0.96000
C1200       C  0.09490312  0.66044142  0.95741015     0.95800
N1201       N  0.05044110  0.78727235  0.97388548    -0.06300
N1202       N  0.07578504  0.80736340  0.96974177    -0.58900
N1203       N  0.47458825  0.75913528  0.96339008    -0.04500
N1204       N  0.45110099  0.76402180  0.95008248    -0.60100
N1205       N  0.47402511  0.78274952  0.97648883    -0.06400
N1206       N  0.44968915  0.80439191  0.97202006    -0.59100
N1207       N  0.04912722  0.76325690  0.96106932    -0.04100
N1208       N  0.07324075  0.76648522  0.94811514    -0.60200
Mn1209     Mn  0.01062492  0.72478625  0.96162524     1.18400
C1210       C  0.08984621  0.79402172  0.95350437     0.98100
C1211       C  0.43547388  0.79215435  0.95537071     0.98800
N1212       N  0.05337050  0.66264165  0.02046717    -0.06400
N1213       N  0.07749527  0.64048118  0.02372802    -0.62700
N1214       N  0.47207985  0.67940699  0.03510874    -0.05200
N1215       N  0.44732710  0.67563824  0.04761940    -0.63400
N1216       N  0.47094906  0.65628327  0.02169360    -0.05900
N1217       N  0.44535184  0.63607164  0.02486266    -0.63000
N1218       N  0.05449928  0.68630559  0.03355588    -0.04800
N1219       N  0.07932943  0.68075782  0.04605815    -0.63700
Mn1220     Mn  0.01321333  0.66180325  0.99832240     1.10700
C1221       C  0.09341624  0.65231108  0.03968071     0.99300
C1222       C  0.43108583  0.64852551  0.04113202     0.99400
N1223       N  0.47460512  0.78111644  0.02356504    -0.05900
N1224       N  0.45031474  0.80277498  0.02778327    -0.61300
N1225       N  0.05488078  0.76438591  0.03312141    -0.05200
N1226       N  0.08095367  0.76809970  0.04498640    -0.58000
N1227       N  0.05386861  0.78829936  0.02016222    -0.06500
N1228       N  0.07943616  0.80893772  0.02315655    -0.60800
N1229       N  0.47466836  0.75697087  0.03638177    -0.05500
N1230       N  0.45059931  0.76167437  0.04934403    -0.58000
Mn1231     Mn  0.01266336  0.78934806  0.99766687     1.20200
Mn1232     Mn  0.01599008  0.72580299  0.03458459     1.10100
Cl1233     Cl  0.01308720  0.72552078  0.99809380    -0.86000
C1234       C  0.43545211  0.79035255  0.04398286     0.96300
C1235       C  0.09637066  0.79566268  0.03858709     0.96100
N1236       N  0.31436840  0.87981891  0.87954562    -0.36600
N1237       N  0.26290200  0.86109021  0.90792483    -0.57200
N1238       N  0.20996426  0.88644248  0.88118324    -0.36600
N1239       N  0.26158012  0.90456277  0.85278404    -0.57200
C1240       C  0.33494641  0.86875934  0.89401619     0.26900
C1241       C  0.33436578  0.89078107  0.86502443     0.26900
C1242       C  0.19016883  0.87137128  0.89453385     0.26900
C1243       C  0.18965560  0.89567894  0.86607985     0.26900
C1244       C  0.29058261  0.84879015  0.91722559     0.35600
C1245       C  0.23546005  0.84952172  0.91735597     0.35600
C1246       C  0.28917638  0.91309465  0.84236836     0.35600
C1247       C  0.23405083  0.91640688  0.84314103     0.35600
C1248       C  0.36850838  0.87246127  0.88847543    -0.21900
C1249       C  0.36813645  0.88582750  0.87017391    -0.21900
C1250       C  0.15665512  0.87246396  0.88811901    -0.21900
C1251       C  0.15641807  0.88732262  0.87020641    -0.21900
C1252       C  0.28066726  0.82944824  0.93276203    -0.23000
C1253       C  0.24585695  0.82967324  0.93275125    -0.23000
C1254       C  0.27904775  0.93046871  0.82593905    -0.23000
C1255       C  0.24424064  0.93265312  0.82646258    -0.23000
C1256       C  0.32476345  0.85379279  0.91171036    -0.18300
C1257       C  0.32349684  0.90600936  0.84743476    -0.18300
C1258       C  0.19974415  0.91182914  0.84869083    -0.18300
C1259       C  0.20108763  0.85523122  0.91195984    -0.18300
H1260       H  0.39109940  0.86592100  0.89667161     0.14600
H1261       H  0.39039906  0.89179578  0.86177995     0.14600
H1262       H  0.13446284  0.86303000  0.89537730     0.14600
H1263       H  0.13413912  0.89145388  0.86122932     0.14600
H1264       H  0.29680829  0.81594818  0.94280944     0.12900
H1265       H  0.23001510  0.81632649  0.94281408     0.12900
H1266       H  0.29508797  0.94085857  0.81482629     0.12900
H1267       H  0.22827690  0.94481538  0.81575695     0.12900
H1268       H  0.28833287  0.87858037  0.87919520     0.26100
H1269       H  0.23532984  0.89198560  0.88285685     0.26100
N1270       N  0.25920426  0.66484561  0.91367559    -0.36600
N1271       N  0.20577367  0.64573332  0.87040688    -0.57200
N1272       N  0.25856659  0.62847784  0.84352178    -0.36600
N1273       N  0.31165514  0.64518103  0.87155287    -0.57200
C1274       C  0.23215266  0.67647015  0.90364828     0.26900
C1275       C  0.28666017  0.67687836  0.90455989     0.26900
C1276       C  0.23087357  0.62871590  0.83166187     0.26900
C1277       C  0.28640854  0.62950942  0.83207469     0.26900
C1278       C  0.18673890  0.64940766  0.88651774     0.35600
C1279       C  0.18608953  0.63136105  0.85685903     0.35600
C1280       C  0.33120257  0.64857862  0.88764130     0.35600
C1281       C  0.33130704  0.63161659  0.85781560     0.35600
C1282       C  0.24229939  0.69792369  0.88916595    -0.21900
C1283       C  0.27691304  0.69831938  0.88980613    -0.21900
C1284       C  0.24126396  0.63051559  0.81249563    -0.21900
C1285       C  0.27627308  0.63093758  0.81274957    -0.21900
C1286       C  0.15427375  0.63767779  0.88313985    -0.23000
C1287       C  0.15386344  0.62617894  0.86427538    -0.23000
C1288       C  0.36376857  0.63715794  0.88413212    -0.23000
C1289       C  0.36386307  0.62640721  0.86514142    -0.23000
C1290       C  0.20018270  0.66186355  0.90415777    -0.18300
C1291       C  0.31841771  0.66143556  0.90524872    -0.18300
C1292       C  0.32057082  0.62585439  0.83851177    -0.18300
C1293       C  0.19671273  0.62465274  0.83768451    -0.18300
H1294       H  0.22641519  0.70955583  0.87821323     0.14600
H1295       H  0.29324463  0.71004505  0.87930224     0.14600
H1296       H  0.22526985  0.63051666  0.79964960     0.14600
H1297       H  0.29248006  0.63126215  0.80012047     0.14600
H1298       H  0.13308815  0.63755228  0.89304638     0.12900
H1299       H  0.13230107  0.61533970  0.85689292     0.12900
H1300       H  0.38529923  0.63712651  0.89396542     0.12900
H1301       H  0.38551516  0.61624208  0.85756355     0.12900
H1302       H  0.25907095  0.64543296  0.92368165     0.26100
H1303       H  0.25862383  0.62358125  0.85836866     0.26100
N1304       N  0.06986017  0.96822220  0.72291695    -0.06200
N1305       N  0.09065211  0.94300377  0.71922412    -0.58300
N1306       N  0.04177293  0.54190979  0.70788913    -0.05800
N1307       N  0.04349955  0.56552067  0.69485028    -0.60400
N1308       N  0.06691567  0.54398801  0.72040949    -0.05400
N1309       N  0.08642238  0.56941233  0.71596368    -0.58300
N1310       N  0.04491037  0.96843010  0.71018898    -0.05100
N1311       N  0.04764645  0.94363543  0.69808369    -0.60800
C1312       C  0.07628296  0.92795374  0.70343799     0.96000
C1313       C  0.07149656  0.58254448  0.69979651     0.95800
N1314       N  0.44010820  0.54283356  0.72189389    -0.06300
N1315       N  0.41976472  0.56838457  0.71861890    -0.58900
N1316       N  0.46251132  0.96601440  0.70942919    -0.04500
N1317       N  0.45817340  0.94035488  0.69800639    -0.60100
N1318       N  0.43927968  0.96691093  0.72299882    -0.06400
N1319       N  0.41833369  0.94168629  0.72103748    -0.59100
N1320       N  0.46377739  0.54138572  0.70860886    -0.04100
N1321       N  0.46027147  0.56552131  0.69601311    -0.60200
Mn1322     Mn  0.00584270  0.00607106  0.70864125     1.18400
C1323       C  0.43268339  0.58200551  0.70229791     0.98100
C1324       C  0.43048406  0.92554433  0.70527776     0.98800
N1325       N  0.06998786  0.54746614  0.76627486    -0.06400
N1326       N  0.09557506  0.56733235  0.77000397    -0.62700
N1327       N  0.04958418  0.97703490  0.78389051    -0.05200
N1328       N  0.06168656  0.96228947  0.79970157    -0.63400
N1329       N  0.07213839  0.97505301  0.76982102    -0.05900
N1330       N  0.09930337  0.95868328  0.77581686    -0.63000
N1331       N  0.04736965  0.54911693  0.78026386    -0.04800
N1332       N  0.05776734  0.57002605  0.79381644    -0.63700
Mn1333     Mn  0.07129036  0.00912175  0.74484046     1.10700
C1334       C  0.08766220  0.58173431  0.78707690     0.99300
C1335       C  0.09243155  0.95019547  0.79432893     0.99400
N1336       N  0.44168404  0.97155744  0.76889268    -0.05900
N1337       N  0.41719978  0.95163959  0.77443181    -0.61300
N1338       N  0.46611386  0.54960364  0.78049547    -0.05200
N1339       N  0.45742367  0.57194581  0.79358376    -0.58000
N1340       N  0.44226140  0.54739998  0.76710207    -0.06500
N1341       N  0.41747589  0.56839398  0.77068062    -0.60800
N1342       N  0.46562472  0.97296733  0.78231351    -0.05500
N1343       N  0.45740540  0.95422364  0.79725675    -0.58000
Mn1344     Mn  0.43959931  0.00701606  0.74464836     1.20200
Mn1345     Mn  0.00666864  0.01335296  0.78231450     1.10100
Cl1346     Cl  0.00641252  0.00874762  0.74531820    -0.86000
C1347       C  0.42735396  0.94049657  0.79206299     0.96300
C1348       C  0.42714194  0.58388872  0.78715765     0.96100
N1349       N  0.26096670  0.61858544  0.09697748    -0.36600
N1350       N  0.31394740  0.62346870  0.12545523    -0.57200
N1351       N  0.26490462  0.63094491  0.15649105    -0.36600
N1352       N  0.21172933  0.62551732  0.12657731    -0.57200
C1353       C  0.28794201  0.60855671  0.08660697     0.26900
C1354       C  0.23295025  0.60871433  0.08732103     0.26900
C1355       C  0.29284588  0.62026872  0.16632325     0.26900
C1356       C  0.23729680  0.62234387  0.16694476     0.26900
C1357       C  0.33240724  0.62765250  0.10924593     0.35600
C1358       C  0.33444208  0.63117138  0.14050414     0.35600
C1359       C  0.19191942  0.63088296  0.11078379     0.35600
C1360       C  0.19417166  0.63642586  0.14205234     0.35600
C1361       C  0.27721233  0.59170023  0.07018660    -0.21900
C1362       C  0.24224169  0.59155208  0.07071235    -0.21900
C1363       C  0.28293802  0.60582448  0.18362209    -0.21900
C1364       C  0.24785306  0.60697028  0.18396762    -0.21900
C1365       C  0.36472832  0.63857654  0.11397662    -0.23000
C1366       C  0.36614522  0.64036874  0.13388383    -0.23000
C1367       C  0.16180034  0.64601556  0.11621313    -0.23000
C1368       C  0.16295400  0.64888837  0.13612282    -0.23000
C1369       C  0.32130389  0.61852762  0.09050491    -0.18300
C1370       C  0.19978115  0.61899831  0.09200693    -0.18300
C1371       C  0.20303309  0.62835273  0.16132912    -0.18300
C1372       C  0.32685515  0.62314505  0.15980909    -0.18300
H1373       H  0.29290765  0.58168575  0.05873869     0.14600
H1374       H  0.22556804  0.58136234  0.05971247     0.14600
H1375       H  0.29924111  0.59499202  0.19464757     0.14600
H1376       H  0.23193614  0.59732426  0.19536468     0.14600
H1377       H  0.38558336  0.64318166  0.10421329     0.12900
H1378       H  0.38832411  0.64627256  0.14254435     0.12900
H1379       H  0.14066503  0.65301418  0.10695397     0.12900
H1380       H  0.14271568  0.65792298  0.14529228     0.12900
H1381       H  0.26168988  0.63606251  0.10806688     0.26100
H1382       H  0.26466362  0.64476433  0.14372069     0.26100
N1383       N  0.26077761  0.88769398  0.15029594    -0.36600
N1384       N  0.31419835  0.86819513  0.12335834    -0.57200
N1385       N  0.26331956  0.84898890  0.09518904    -0.36600
N1386       N  0.20961839  0.87089594  0.12130664    -0.57200
C1387       C  0.28800178  0.90282538  0.15844006     0.26900
C1388       C  0.23241234  0.90134665  0.15802346     0.26900
C1389       C  0.29172991  0.84583358  0.08436235     0.26900
C1390       C  0.23641986  0.84967572  0.08284019     0.26900
C1391       C  0.33297074  0.87402698  0.13950800     0.35600
C1392       C  0.33438802  0.85129508  0.11095650     0.35600
C1393       C  0.19005977  0.87272576  0.13735463     0.35600
C1394       C  0.19126885  0.85455322  0.10772831     0.35600
C1395       C  0.27675116  0.92643432  0.17155706    -0.21900
C1396       C  0.24167284  0.92559005  0.17123843    -0.21900
C1397       C  0.28280205  0.84428338  0.06487445    -0.21900
C1398       C  0.24792819  0.84695675  0.06389927    -0.21900
C1399       C  0.36528184  0.86083060  0.13733650    -0.23000
C1400       C  0.36622498  0.84659254  0.11922335    -0.23000
C1401       C  0.15918606  0.85745373  0.13395709    -0.23000
C1402       C  0.15996497  0.84590938  0.11518560    -0.23000
C1403       C  0.32257183  0.89426407  0.15518896    -0.18300
C1404       C  0.19872070  0.89050523  0.15437871    -0.18300
C1405       C  0.20180521  0.84889687  0.08839025    -0.18300
C1406       C  0.32516554  0.84202727  0.09178503    -0.18300
H1407       H  0.29221339  0.94230643  0.18060744     0.14600
H1408       H  0.22490541  0.94057334  0.18003298     0.14600
H1409       H  0.29961202  0.84109354  0.05264142     0.14600
H1410       H  0.23270111  0.84598298  0.05076772     0.14600
H1411       H  0.38629260  0.86221792  0.14750907     0.12900
H1412       H  0.38803112  0.83462579  0.11275889     0.12900
H1413       H  0.13816747  0.85517060  0.14389635     0.12900
H1414       H  0.13969813  0.83293571  0.10779711     0.12900
H1415       H  0.26146052  0.86659543  0.14168110     0.26100
H1416       H  0.26210245  0.84639093  0.11017536     0.26100
C1417       C  0.14037260  0.57084285  0.80559627    -0.05800
C1418       C  0.11488778  0.59344705  0.80018912     0.00100
C1419       C  0.11702631  0.62662537  0.80632280    -0.08500
C1420       C  0.14509936  0.63635063  0.81770685    -0.05800
C1421       C  0.17043638  0.61363936  0.82338664     0.00100
C1422       C  0.16807266  0.58024727  0.81730555    -0.08400
C1423       C  0.19432041  0.55451970  0.82334255     0.62000
H1424       H  0.13826075  0.54556608  0.80057632     0.12700
H1425       H  0.14701022  0.66158013  0.82281476     0.12700
C1426       C  0.08943008  0.65128353  0.80100595     0.62200
F1427       F  0.18506913  0.52302322  0.81762540    -0.22900
F1428       F  0.19822939  0.55446318  0.84332102    -0.20300
F1429       F  0.22504542  0.56153315  0.81483690    -0.19900
F1430       F  0.05927084  0.64181570  0.80946064    -0.20000
F1431       F  0.08519698  0.65228922  0.78104849    -0.20300
F1432       F  0.09715240  0.68281201  0.80736311    -0.23000
C1433       C  0.37051929  0.63834773  0.81799905    -0.05800
C1434       C  0.34678691  0.61507462  0.82445426     0.00100
C1435       C  0.35057005  0.58140287  0.81935491    -0.08500
C1436       C  0.37752598  0.57227098  0.80726814    -0.05800
C1437       C  0.40106608  0.59550498  0.80073235     0.00100
C1438       C  0.39813609  0.62887290  0.80635659    -0.08400
C1439       C  0.42440740  0.65389235  0.80022740     0.62000
H1440       H  0.36765900  0.66379124  0.82259874     0.12700
H1441       H  0.38061665  0.54674423  0.80284589     0.12700
C1442       C  0.32674499  0.55516902  0.82700453     0.62200
F1443       F  0.41675646  0.68526514  0.80695630    -0.22900
F1444       F  0.42610800  0.65505501  0.78017691    -0.20300
F1445       F  0.45579812  0.64472772  0.80763577    -0.19900
F1446       F  0.29434692  0.56070411  0.81997857    -0.20000
F1447       F  0.32631691  0.55606744  0.84708963    -0.20300
F1448       F  0.33655960  0.52378413  0.82130133    -0.23000
C1449       C  0.16574184  0.90307567  0.81837986    -0.05800
C1450       C  0.17235312  0.92270236  0.83477701     0.00100
C1451       C  0.15314008  0.95195576  0.83768278    -0.08500
C1452       C  0.12638463  0.95955227  0.82461335    -0.05800
C1453       C  0.11964348  0.93978877  0.80822864     0.00100
C1454       C  0.14030152  0.91163179  0.80473050    -0.08400
C1455       C  0.13547120  0.89072779  0.78661038     0.62000
H1456       H  0.18118968  0.88119031  0.81621500     0.12700
H1457       H  0.11121748  0.98163198  0.82675072     0.12700
C1458       C  0.16192011  0.97552406  0.85411049     0.62200
F1459       F  0.15573935  0.86270291  0.78692225    -0.22900
F1460       F  0.14395297  0.90889962  0.77036468    -0.20300
F1461       F  0.10200523  0.88087008  0.78507681    -0.19900
F1462       F  0.14220812  0.00391158  0.85348174    -0.20000
F1463       F  0.19560863  0.98463799  0.85274173    -0.20300
F1464       F  0.15686708  0.96046793  0.87184940    -0.23000
C1465       C  0.35871004  0.89306043  0.81857491    -0.05800
C1466       C  0.35041961  0.91547746  0.83338768     0.00100
C1467       C  0.36839841  0.94553214  0.83507605    -0.08500
C1468       C  0.39408571  0.95232169  0.82157794    -0.05800
C1469       C  0.40211291  0.93011053  0.80660505     0.00100
C1470       C  0.38439246  0.89991970  0.80505065    -0.08400
C1471       C  0.39316895  0.87489758  0.78942647     0.62000
H1472       H  0.34483675  0.87008354  0.81774553     0.12700
H1473       H  0.40775446  0.97542028  0.82238556     0.12700
C1474       C  0.36026086  0.97033708  0.85097448     0.62200
F1475       F  0.37449281  0.84621097  0.79124666    -0.22900
F1476       F  0.42721783  0.86662988  0.79077332    -0.20300
F1477       F  0.38656757  0.88814869  0.77127588    -0.19900
F1478       F  0.36742563  0.95692647  0.86898716    -0.20000
F1479       F  0.32624104  0.97876685  0.85017386    -0.20300
F1480       F  0.37906156  0.99893241  0.84912883    -0.23000
C1481       C  0.18067502  0.63971434  0.05989420    -0.05800
C1482       C  0.17362488  0.62023333  0.07629180     0.00100
C1483       C  0.14131211  0.60515364  0.07789382    -0.08500
C1484       C  0.11547637  0.61507462  0.06500044    -0.05800
C1485       C  0.12216732  0.63641641  0.04953164     0.00100
C1486       C  0.15559874  0.64673292  0.04592400    -0.08400
C1487       C  0.16452598  0.66436208  0.02721175     0.62000
H1488       H  0.20582646  0.64998053  0.05831336     0.12700
H1489       H  0.08976703  0.60647919  0.06719162     0.12700
C1490       C  0.13270673  0.57913831  0.09291347     0.62200
F1491       F  0.19800887  0.67452720  0.02712141    -0.22900
F1492       F  0.14406414  0.69173991  0.02455062    -0.20300
F1493       F  0.15954020  0.64307135  0.01175757    -0.19900
F1494       F  0.11070471  0.59238619  0.10643971    -0.20000
F1495       F  0.16110634  0.56686935  0.10242182    -0.20300
F1496       F  0.11688903  0.55285320  0.08381337    -0.23000
C1497       C  0.37299917  0.65878270  0.05158945    -0.05800
C1498       C  0.40008412  0.63638946  0.05021067     0.00100
C1499       C  0.39901532  0.60579077  0.06009364    -0.08500
C1500       C  0.37095636  0.59921017  0.07191975    -0.05800
C1501       C  0.34495014  0.62259918  0.07420459     0.00100
C1502       C  0.34513058  0.65235745  0.06347278    -0.08400
C1503       C  0.31659404  0.67764235  0.06516963     0.62000
H1504       H  0.37460055  0.68204615  0.04387853     0.12700
H1505       H  0.37011009  0.57681441  0.08050282     0.12700
C1506       C  0.42835946  0.58142709  0.05922778     0.62200
F1507       F  0.32323138  0.70599981  0.05465900    -0.22900
F1508       F  0.31205687  0.68657971  0.08437076    -0.20300
F1509       F  0.28677636  0.66426513  0.05812071    -0.19900
F1510       F  0.45777868  0.59636353  0.06577800    -0.20000
F1511       F  0.43281968  0.57099973  0.04029045    -0.20300
F1512       F  0.42269352  0.55386487  0.07064031    -0.23000
C1513       C  0.12557592  0.84424310  0.05345334    -0.05800
C1514       C  0.12605305  0.81046594  0.04879153     0.00100
C1515       C  0.15369808  0.79066623  0.05530757    -0.08500
C1516       C  0.17783141  0.80433340  0.06800185    -0.05800
C1517       C  0.17609752  0.83741386  0.07381171     0.00100
C1518       C  0.15045947  0.85823436  0.06581479    -0.08400
C1519       C  0.14947786  0.89494082  0.07025562     0.62000
H1520       H  0.10479414  0.85930208  0.04801262     0.12700
H1521       H  0.19812318  0.78900329  0.07381120     0.12700
C1522       C  0.15847625  0.75546277  0.04839831     0.62200
F1523       F  0.12546693  0.91128514  0.05899388    -0.22900
F1524       F  0.18079896  0.90870435  0.06650555    -0.20300
F1525       F  0.14150492  0.90003364  0.08953372    -0.19900
F1526       F  0.15278831  0.75408661  0.02856861    -0.20000
F1527       F  0.13615068  0.73489487  0.05788128    -0.20300
F1528       F  0.19114414  0.74405711  0.05193825    -0.23000
C1529       C  0.38671622  0.78330774  0.06630800    -0.05800
C1530       C  0.40615043  0.80507797  0.05497432     0.00100
C1531       C  0.39803384  0.83940811  0.05551399    -0.08500
C1532       C  0.37113166  0.85038553  0.06746242    -0.05800
C1533       C  0.35213868  0.82844991  0.07873257     0.00100
C1534       C  0.35985684  0.79434738  0.07812314    -0.08400
C1535       C  0.33951582  0.76966581  0.08979866     0.62000
H1536       H  0.39263438  0.75718076  0.06578775     0.12700
H1537       H  0.36475983  0.87639650  0.06829144     0.12700
C1538       C  0.41802097  0.86466312  0.04412312     0.62200
F1539       F  0.35271619  0.73808056  0.08820761    -0.22900
F1540       F  0.30631989  0.76943653  0.08313883    -0.20300
F1541       F  0.33985654  0.77801783  0.10926421    -0.19900
F1542       F  0.41411490  0.85890419  0.02444377    -0.20000
F1543       F  0.45199767  0.86259905  0.04917814    -0.20300
F1544       F  0.40710842  0.89662258  0.04780791    -0.23000
C1545       C  0.13529984  0.83602658  0.95087435    -0.05800
C1546       C  0.11924170  0.80820042  0.94277692     0.00100
C1547       C  0.13127753  0.79545614  0.92469358    -0.08500
C1548       C  0.15956855  0.81037676  0.91610200    -0.05800
C1549       C  0.17437645  0.83886572  0.92381191     0.00100
C1550       C  0.16218921  0.85211835  0.94147068    -0.08400
C1551       C  0.17676703  0.88362104  0.95002719     0.62000
H1552       H  0.12610920  0.84569066  0.96453142     0.12700
H1553       H  0.16956401  0.80096080  0.90255488     0.12700
C1554       C  0.11397044  0.76751405  0.91366461     0.62200
F1555       F  0.15988737  0.89323447  0.96669477    -0.22900
F1556       F  0.17395223  0.90892951  0.93662403    -0.20300
F1557       F  0.21054904  0.87903883  0.95482972    -0.19900
F1558       F  0.08050256  0.77594360  0.90989094    -0.20000
F1559       F  0.11545845  0.73864175  0.92432016    -0.20300
F1560       F  0.12919079  0.76121091  0.89595678    -0.23000
C1561       C  0.36556643  0.80852979  0.91730138    -0.05800
C1562       C  0.35209583  0.83838854  0.92387769     0.00100
C1563       C  0.36653632  0.85392052  0.94034191    -0.08500
C1564       C  0.39328925  0.83781619  0.95037088    -0.05800
C1565       C  0.40711366  0.80765300  0.94382306     0.00100
C1566       C  0.39368969  0.79340320  0.92631786    -0.08400
C1567       C  0.40906050  0.76329366  0.91629324     0.62000
H1568       H  0.35432592  0.79782227  0.90436853     0.12700
H1569       H  0.40390139  0.84903788  0.96330891     0.12700
C1570       C  0.35401259  0.88753725  0.94699103     0.62200
F1571       F  0.39281417  0.75595372  0.89892261    -0.22900
F1572       F  0.40651089  0.73581934  0.92802607    -0.20300
F1573       F  0.44272344  0.76920207  0.91201722    -0.19900
F1574       F  0.32067063  0.88531334  0.95291987    -0.20000
F1575       F  0.35600023  0.90990321  0.93185781    -0.20300
F1576       F  0.37314906  0.89959411  0.96234314    -0.23000
C1577       C  0.16599407  0.62827985  0.92711924    -0.05800
C1578       C  0.18162396  0.65863327  0.92290839     0.00100
C1579       C  0.17520600  0.68623985  0.93520247    -0.08500
C1580       C  0.14969256  0.68348895  0.94919714    -0.05800
C1581       C  0.12979628  0.65510016  0.95064855     0.00100
C1582       C  0.13924587  0.62629228  0.94050249    -0.08400
C1583       C  0.11965012  0.59447731  0.94288939     0.62000
H1584       H  0.17267990  0.60687647  0.91848689     0.12700
H1585       H  0.14243766  0.70485064  0.95773705     0.12700
C1586       C  0.19313711  0.71920597  0.93300275     0.62200
F1587       F  0.13232263  0.56950406  0.93121728    -0.22900
F1588       F  0.08590560  0.59943333  0.93797505    -0.20300
F1589       F  0.12186171  0.58426839  0.96202512    -0.19900
F1590       F  0.18901039  0.73114362  0.91432395    -0.19200
F1591       F  0.22718201  0.71522726  0.93711402    -0.20300
F1592       F  0.18074144  0.74291663  0.94564675    -0.23000
C1593       C  0.35324501  0.62733793  0.92815313    -0.05800
C1594       C  0.33761103  0.65795983  0.92396675     0.00100
C1595       C  0.34488709  0.68552890  0.93611079    -0.08500
C1596       C  0.37098117  0.68236844  0.94996811    -0.05800
C1597       C  0.39079798  0.65365925  0.95132808     0.00100
C1598       C  0.38070199  0.62498195  0.94129240    -0.08400
C1599       C  0.40068228  0.59306576  0.94326178     0.62000
H1600       H  0.34616290  0.60603638  0.91954932     0.12700
H1601       H  0.37866800  0.70360061  0.95847701     0.12700
C1602       C  0.32734327  0.71888102  0.93379282     0.62200
F1603       F  0.38608622  0.56768391  0.93270119    -0.22900
F1604       F  0.40190231  0.58371831  0.96257498    -0.20300
F1605       F  0.43338528  0.59755897  0.93661636    -0.19900
F1606       F  0.29324915  0.71569312  0.93762342    -0.20000
F1607       F  0.33162689  0.73067646  0.91513826    -0.20300
F1608       F  0.34002635  0.74230062  0.94653877    -0.23000
C1609       C  0.35326284  0.89186821  0.18704900    -0.05800
C1610       C  0.34948066  0.90689091  0.16877082     0.00100
C1611       C  0.37197052  0.93251392  0.16341174    -0.08500
C1612       C  0.39837793  0.94138440  0.17634705    -0.05800
C1613       C  0.40254625  0.92595819  0.19448345     0.00100
C1614       C  0.37904660  0.90148663  0.20020482    -0.08400
C1615       C  0.38070111  0.88636474  0.22035668     0.62000
H1616       H  0.33560972  0.87262086  0.19096234     0.12700
H1617       H  0.41549456  0.96120486  0.17263011     0.12700
C1618       C  0.36700688  0.95141494  0.14451526     0.62200
F1619       F  0.35488780  0.86388387  0.22328298    -0.22900
F1620       F  0.37769495  0.91089462  0.23424261    -0.20300
F1621       F  0.41139486  0.87017136  0.22288134    -0.19900
F1622       F  0.39030696  0.97662269  0.14261067    -0.20000
F1623       F  0.33473249  0.96505539  0.14399693    -0.20300
F1624       F  0.37086784  0.93069376  0.12875934    -0.23000
C1625       C  0.14422929  0.91998322  0.16153696    -0.05800
C1626       C  0.17083376  0.89949584  0.16824102     0.00100
C1627       C  0.16883456  0.88590153  0.18721340    -0.08500
C1628       C  0.14255923  0.89664842  0.19960751    -0.05800
C1629       C  0.11682266  0.91809323  0.19305143     0.00100
C1630       C  0.11648622  0.92831977  0.17345179    -0.08400
C1631       C  0.08600193  0.94651923  0.16508257     0.62000
H1632       H  0.14495351  0.92868304  0.14667030     0.12700
H1633       H  0.14218230  0.88870728  0.21463045     0.12700
C1634       C  0.19354144  0.85939351  0.19412261     0.62200
F1635       F  0.09128697  0.95629565  0.14608423    -0.22900
F1636       F  0.07873244  0.97423598  0.17596738    -0.20300
F1637       F  0.05821613  0.92583007  0.16544353    -0.19900
F1638       F  0.22537785  0.87264845  0.19699365    -0.20000
F1639       F  0.19554572  0.83444199  0.18042969    -0.20300
F1640       F  0.18327754  0.84540683  0.21144821    -0.23000
C1641       C  0.39589007  0.56867842  0.18203518    -0.05800
C1642       C  0.41111243  0.59011727  0.19543404     0.00100
C1643       C  0.39930982  0.62314245  0.19684059    -0.08500
C1644       C  0.37141893  0.63317629  0.18518343    -0.05800
C1645       C  0.35567479  0.61126345  0.17217053     0.00100
C1646       C  0.36873105  0.57877620  0.17009398    -0.08400
C1647       C  0.35457258  0.55486125  0.15511453     0.62000
H1648       H  0.40544868  0.54357493  0.18113560     0.12700
H1649       H  0.36157959  0.65814428  0.18614993     0.12700
C1650       C  0.41532902  0.64714504  0.21103129     0.62200
F1651       F  0.36700294  0.52330263  0.15802406    -0.22900
F1652       F  0.36376507  0.56482644  0.13669010    -0.20300
F1653       F  0.31960866  0.55343109  0.15619650    -0.19900
F1654       F  0.44923873  0.65110759  0.20659971    -0.20000
F1655       F  0.41255938  0.63510961  0.22975304    -0.20300
F1656       F  0.39982285  0.67789052  0.21030743    -0.23000
C1657       C  0.13521314  0.62181430  0.20090665    -0.05800
C1658       C  0.12076179  0.59117342  0.19604438     0.00100
C1659       C  0.13215202  0.57422219  0.17929804    -0.08500
C1660       C  0.15910553  0.58733285  0.16865979    -0.05800
C1661       C  0.17472655  0.61703437  0.17395431     0.00100
C1662       C  0.16203641  0.63529369  0.18990655    -0.08400
C1663       C  0.17653521  0.66883379  0.19498290     0.62000
H1664       H  0.12613276  0.63452631  0.21371977     0.12700
H1665       H  0.16863861  0.57418716  0.15609428     0.12700
C1666       C  0.11583285  0.54229392  0.17263743     0.62200
F1667       F  0.16011670  0.68298462  0.21065804    -0.22900
F1668       F  0.17296343  0.68983083  0.17924523    -0.20300
F1669       F  0.21057556  0.66582109  0.19964552    -0.19900
F1670       F  0.08097720  0.54639191  0.17162614    -0.20000
F1671       F  0.12374720  0.51731935  0.18558396    -0.20300
F1672       F  0.12699628  0.53271793  0.15444206    -0.23000
C1673       C  0.08286281  0.65076801  0.66186834    -0.05800
C1674       C  0.10973566  0.66860298  0.67002003     0.00100
C1675       C  0.12513585  0.65739794  0.68741930    -0.08500
C1676       C  0.11110344  0.62992550  0.69695882    -0.05800
C1677       C  0.08409421  0.61181095  0.68883188     0.00100
C1678       C  0.07068250  0.62166617  0.67036065    -0.08400
C1679       C  0.04499617  0.60135931  0.65885719     0.62000
H1680       H  0.07232423  0.65939328  0.64819151     0.12700
H1681       H  0.12197383  0.62178634  0.71063251     0.12700
C1682       C  0.15754140  0.67289338  0.69508302     0.62200
F1683       F  0.03982703  0.61366121  0.64028909    -0.22900
F1684       F  0.01398189  0.60158042  0.66807733    -0.20300
F1685       F  0.05664143  0.56922676  0.65690882    -0.19900
F1686       F  0.15230931  0.70588587  0.69922230    -0.20000
F1687       F  0.18263386  0.67002767  0.68121906    -0.20300
F1688       F  0.16899020  0.65756330  0.71188209    -0.23000
C1689       C  0.11805026  0.88140366  0.69991156    -0.05800
C1690       C  0.09063785  0.89963807  0.69207905     0.00100
C1691       C  0.07767885  0.89056239  0.67333392    -0.08500
C1692       C  0.09020983  0.86190227  0.66444771    -0.05800
C1693       C  0.11717445  0.84375031  0.67230128     0.00100
C1694       C  0.13241990  0.85423000  0.68990790    -0.08400
C1695       C  0.16454016  0.83782133  0.69747465     0.62000
H1696       H  0.12858611  0.88894229  0.71377288     0.12700
H1697       H  0.07962607  0.85370357  0.65071124     0.12700
C1698       C  0.05197995  0.91119664  0.66184525     0.62200
F1699       F  0.17638851  0.85285392  0.71424907    -0.22900
F1700       F  0.18960137  0.83991743  0.68356241    -0.20300
F1701       F  0.15854436  0.80497389  0.70154904    -0.19900
F1702       F  0.06267635  0.94365453  0.66089675    -0.20000
F1703       F  0.02039798  0.90953871  0.67039578    -0.20300
F1704       F  0.04837354  0.90024587  0.64288187    -0.23000
C1705       C  0.38314809  0.64669843  0.67444411    -0.05800
C1706       C  0.40943752  0.66846892  0.66987969     0.00100
C1707       C  0.44236313  0.66353584  0.67764610    -0.08500
C1708       C  0.44793607  0.63622120  0.68973367    -0.05800
C1709       C  0.42211420  0.61348764  0.69357433     0.00100
C1710       C  0.38903237  0.61881467  0.68612742    -0.08400
C1711       C  0.36062191  0.59455676  0.68981090     0.62000
H1712       H  0.35822135  0.65128038  0.66824122     0.12700
H1713       H  0.47298949  0.63160661  0.69574140     0.12700
C1714       C  0.47165503  0.68614820  0.67255312     0.62200
F1715       F  0.33116686  0.60326323  0.67993897    -0.22900
F1716       F  0.35356761  0.59379690  0.70944729    -0.20300
F1717       F  0.37017087  0.56331040  0.68372635    -0.19900
F1718       F  0.46493227  0.71778867  0.67900987    -0.20000
F1719       F  0.47606419  0.68671299  0.65264489    -0.20300
F1720       F  0.00449999  0.67019422  0.67989699    -0.23000
C1721       C  0.37737297  0.86122404  0.67957217    -0.05800
C1722       C  0.40277809  0.83806833  0.67501378     0.00100
C1723       C  0.43587710  0.84161890  0.68289111    -0.08500
C1724       C  0.44279603  0.86946819  0.69429684    -0.05800
C1725       C  0.41817657  0.89387421  0.69762162     0.00100
C1726       C  0.38465946  0.88955923  0.69065717    -0.08400
C1727       C  0.35764804  0.91592567  0.69356060     0.62000
H1728       H  0.35234706  0.85794607  0.67328173     0.12700
H1729       H  0.46815763  0.87330398  0.70000508     0.12700
C1730       C  0.46425611  0.81713170  0.67856153     0.62200
F1731       F  0.32679024  0.90683896  0.68551332    -0.22900
F1732       F  0.36774162  0.94501276  0.68484500    -0.20300
F1733       F  0.35284755  0.92135376  0.71318094    -0.19900
F1734       F  0.98172058  0.82253184  0.65414400    -0.20000
F1735       F  0.45688444  0.78687197  0.68667320    -0.20300
F1736       F  0.00772923  0.83302625  0.68249695    -0.23000
C1737       C  0.31790533  0.62551503  0.56968241    -0.05800
C1738       C  0.33456701  0.61677600  0.55234289     0.00100
C1739       C  0.36254209  0.63628424  0.54625109    -0.08500
C1740       C  0.37311754  0.66292921  0.55814419    -0.05800
C1741       C  0.35658312  0.67074281  0.57557586     0.00100
C1742       C  0.32811498  0.65212331  0.58130076    -0.08400
C1743       C  0.30803995  0.66055016  0.59949732     0.62000
H1744       H  0.29645499  0.61110313  0.57436233     0.12700
H1745       H  0.39471912  0.67775840  0.55408800     0.12700
C1746       C  0.38127323  0.62943535  0.52747790     0.62200
F1747       F  0.27930742  0.64126757  0.60125024    -0.22900
F1748       F  0.29775676  0.69324010  0.59883734    -0.20300
F1749       F  0.32774010  0.65544233  0.61590246    -0.19900
F1750       F  0.35877368  0.63045941  0.51197759    -0.20000
F1751       F  0.39667797  0.59869940  0.52840293    -0.20300
F1752       F  0.40627384  0.65258002  0.52404866    -0.23000
C1753       C  0.31695407  0.88416787  0.56698104    -0.05800
C1754       C  0.33967355  0.89841050  0.55369569     0.00100
C1755       C  0.37333258  0.88565751  0.55264204    -0.08500
C1756       C  0.38227146  0.85835151  0.56443844    -0.05800
C1757       C  0.35949332  0.84512978  0.57789859     0.00100
C1758       C  0.32671785  0.85886287  0.57969808    -0.08400
C1759       C  0.30253657  0.84761547  0.59547784     0.62000
H1760       H  0.29132535  0.89374807  0.56788015     0.12700
H1761       H  0.40747709  0.84763841  0.56372299     0.12700
C1762       C  0.40012842  0.90126764  0.53995236     0.62200
F1763       F  0.27209174  0.86484440  0.59487406    -0.22900
F1764       F  0.31698002  0.85292341  0.61354829    -0.20300
F1765       F  0.29572202  0.81435803  0.59338704    -0.19900
F1766       F  0.40337978  0.93433931  0.54458960    -0.20000
F1767       F  0.39104818  0.89815777  0.52066276    -0.20300
F1768       F  0.43159720  0.88639607  0.54245577    -0.23000
C1769       C  0.19341157  0.64024369  0.55666662    -0.05800
C1770       C  0.16773583  0.61811965  0.55136503     0.00100
C1771       C  0.13362042  0.62483724  0.55645331    -0.08500
C1772       C  0.12684639  0.65265671  0.56808209    -0.05800
C1773       C  0.15303226  0.67344949  0.57439871     0.00100
C1774       C  0.18667824  0.66798897  0.56813069    -0.08400
C1775       C  0.21544475  0.69089309  0.57387390     0.62000
H1776       H  0.21921481  0.63492949  0.55225083     0.12700
H1777       H  0.10130365  0.65771542  0.57302829     0.12700
C1778       C  0.10494173  0.60199155  0.55056055     0.62200
F1779       F  0.24641416  0.67996427  0.56690061    -0.22900
F1780       F  0.21796413  0.69310714  0.59386835    -0.20300
F1781       F  0.20930894  0.72189534  0.56627505    -0.19900
F1782       F  0.11132669  0.57047390  0.55747972    -0.20000
F1783       F  0.10216440  0.60112362  0.53053126    -0.20300
F1784       F  0.07405350  0.61243394  0.55789245    -0.23000
C1785       C  0.13260724  0.86426806  0.57059813    -0.05800
C1786       C  0.15793381  0.84172336  0.57621709     0.00100
C1787       C  0.19093952  0.84419712  0.56845231    -0.08500
C1788       C  0.19847928  0.87151029  0.55680106    -0.05800
C1789       C  0.17365419  0.89507237  0.55190485     0.00100
C1790       C  0.13974887  0.89072709  0.55806128    -0.08400
C1791       C  0.11154517  0.91414884  0.55182909     0.62000
H1792       H  0.10730014  0.86108301  0.57631956     0.12700
H1793       H  0.22408988  0.87496861  0.55157109     0.12700
C1794       C  0.21799987  0.81822736  0.57250294     0.62200
F1795       F  0.08096794  0.90639133  0.56045149    -0.22900
F1796       F  0.10716956  0.91219328  0.53190987    -0.20300
F1797       F  0.11964291  0.94620050  0.55693465    -0.19900
F1798       F  0.20770506  0.78821023  0.56515037    -0.20000
F1799       F  0.22337505  0.81522263  0.59229035    -0.20300
F1800       F  0.24849431  0.82594258  0.56379133    -0.23000
C1801       C  0.13298996  0.65729936  0.31477575    -0.05800
C1802       C  0.11507879  0.66191043  0.33221540     0.00100
C1803       C  0.09224680  0.63671567  0.33823126    -0.08500
C1804       C  0.08825067  0.60834323  0.32662482    -0.05800
C1805       C  0.10485009  0.60450378  0.30887685     0.00100
C1806       C  0.12803074  0.62906493  0.30292721    -0.08400
C1807       C  0.14718283  0.62526374  0.28403367     0.62000
H1808       H  0.15089862  0.67607938  0.31049100     0.12700
H1809       H  0.07047429  0.58944868  0.33098248     0.12700
C1810       C  0.07244305  0.63795531  0.35707261     0.62200
F1811       F  0.16996781  0.65069734  0.28125277    -0.22900
F1812       F  0.12464461  0.62508286  0.26854468    -0.20300
F1813       F  0.16512956  0.59579957  0.28428198    -0.19900
F1814       F  0.04102459  0.62332524  0.35485010    -0.20000
F1815       F  0.06685297  0.66990642  0.36343050    -0.20300
F1816       F  0.09023330  0.62040147  0.37101109    -0.23000
C1817       C  0.12635441  0.87629864  0.30135024    -0.05800
C1818       C  0.09922532  0.89680483  0.30693387     0.00100
C1819       C  0.08133783  0.88958542  0.32411941    -0.08500
C1820       C  0.08938393  0.86060263  0.33443486    -0.05800
C1821       C  0.11574227  0.83933900  0.32863137     0.00100
C1822       C  0.13558884  0.84798515  0.31228473    -0.08400
C1823       C  0.16660263  0.82783028  0.30668257     0.62000
H1824       H  0.13962876  0.88211684  0.28806985     0.12700
H1825       H  0.07548691  0.85452686  0.34746782     0.12700
C1826       C  0.05437987  0.91310428  0.33172328     0.62200
F1827       F  0.18380499  0.84197766  0.29134488    -0.22900
F1828       F  0.15703358  0.79641228  0.30118527    -0.20300
F1829       F  0.18873728  0.82568335  0.32231974    -0.19900
F1830       F  0.02703608  0.91424781  0.31909293    -0.20000
F1831       F  0.06791129  0.94443392  0.33342797    -0.20300
F1832       F  0.04273423  0.90362305  0.34979800    -0.23000
C1833       C  0.17786618  0.67314529  0.43977527    -0.05800
C1834       C  0.14674093  0.67200135  0.42984438     0.00100
C1835       C  0.12344612  0.64652360  0.43400236    -0.08500
C1836       C  0.13395389  0.62046377  0.44619180    -0.05800
C1837       C  0.16641518  0.62004843  0.45460606     0.00100
C1838       C  0.18785886  0.64776307  0.45252088    -0.08400
C1839       C  0.22066626  0.65083975  0.46404842     0.62000
H1840       H  0.19471519  0.69362755  0.43698061     0.12700
H1841       H  0.11754666  0.59946356  0.44846470     0.12700
C1842       C  0.08781825  0.64701484  0.42558084     0.62200
F1843       F  0.23506429  0.68174064  0.46189027    -0.22900
F1844       F  0.24392948  0.62750625  0.45795940    -0.20300
F1845       F  0.21416589  0.64615541  0.48357628    -0.19900
F1846       F  0.08902354  0.64440004  0.40565644    -0.20000
F1847       F  0.07188784  0.67636652  0.43043077    -0.20300
F1848       F  0.06846590  0.62123137  0.43255231    -0.23000
C1849       C  0.12789318  0.86184730  0.43404399    -0.05800
C1850       C  0.15317645  0.84101140  0.42654311     0.00100
C1851       C  0.18738246  0.84552197  0.43224728    -0.08500
C1852       C  0.19555227  0.87272111  0.44404959    -0.05800
C1853       C  0.17055534  0.89470813  0.45083635     0.00100
C1854       C  0.13594932  0.88848081  0.44645460    -0.08400
C1855       C  0.10781146  0.91027679  0.45433104     0.62000
H1856       H  0.10181594  0.85730722  0.42981118     0.12700
H1857       H  0.22184406  0.87749917  0.44773840     0.12700
C1858       C  0.21514044  0.82201176  0.42555675     0.62200
F1859       F  0.07625011  0.90095856  0.44735810    -0.22900
F1860       F  0.11310321  0.94275417  0.44898215    -0.20300
F1861       F  0.10733867  0.90795581  0.47437223    -0.19900
F1862       F  0.20760309  0.79011980  0.43114972    -0.20000
F1863       F  0.24635757  0.82997954  0.43354537    -0.20300
F1864       F  0.21779779  0.82308522  0.40555869    -0.23000
C1865       C  0.40836795  0.61430120  0.31650778    -0.05800
C1866       C  0.44141070  0.61613844  0.30906427     0.00100
C1867       C  0.46140343  0.64481995  0.31361816    -0.08500
C1868       C  0.44751787  0.66950817  0.32548512    -0.05800
C1869       C  0.41451557  0.66783657  0.33245501     0.00100
C1870       C  0.39418237  0.64014397  0.32767296    -0.08400
C1871       C  0.35780087  0.63688671  0.33437570     0.62000
H1872       H  0.39315616  0.59280354  0.31317442     0.12700
H1873       H  0.46244029  0.69083234  0.32956372     0.12700
C1874       C  0.49740810  0.65033777  0.30637400     0.62200
F1875       F  0.33858976  0.62085644  0.32039044    -0.22900
F1876       F  0.34283921  0.66736469  0.33759804    -0.20300
F1877       F  0.35710978  0.61867321  0.35134333    -0.19900
F1878       F  0.49706560  0.65531132  0.28649339    -0.20000
F1879       F  0.51735614  0.62340304  0.31104312    -0.20300
F1880       F  0.51254981  0.67777437  0.31468179    -0.23000
C1881       C  0.38825005  0.86227330  0.32392365    -0.05800
C1882       C  0.41331871  0.84082924  0.33148812     0.00100
C1883       C  0.44781481  0.84715154  0.32757004    -0.08500
C1884       C  0.45598402  0.87425922  0.31582484    -0.05800
C1885       C  0.43122596  0.89580303  0.30797250     0.00100
C1886       C  0.39656927  0.88976590  0.31213876    -0.08400
C1887       C  0.36855168  0.91163329  0.30402261     0.62000
H1888       H  0.36204801  0.85738910  0.32752544     0.12700
H1889       H  0.48233251  0.87861542  0.31248951     0.12700
C1890       C  0.47605896  0.82564233  0.33600961     0.62200
F1891       F  0.33668941  0.90027457  0.30901622    -0.22900
F1892       F  0.37033277  0.91247581  0.28397026    -0.20300
F1893       F  0.37202299  0.94325598  0.31131632    -0.19900
F1894       F  0.47262093  0.79353317  0.32952471    -0.20000
F1895       F  0.47463617  0.82605016  0.35606670    -0.20300
F1896       F  0.50787875  0.83653925  0.33063014    -0.23000
C1897       C  0.35446245  0.63085518  0.45341617    -0.05800
C1898       C  0.32924579  0.61134123  0.44455080     0.00100
C1899       C  0.31819182  0.61945352  0.42531564    -0.08500
C1900       C  0.33115293  0.64790592  0.41648815    -0.05800
C1901       C  0.35608296  0.66726567  0.42538169     0.00100
C1902       C  0.36881335  0.65825195  0.44390862    -0.08400
C1903       C  0.39855083  0.67628010  0.45307066     0.62000
H1904       H  0.36334804  0.62415661  0.46780499     0.12700
H1905       H  0.32244946  0.65509514  0.40212671     0.12700
C1906       C  0.29394830  0.59808539  0.41348585     0.62200
F1907       F  0.40742779  0.66306256  0.47095765    -0.22900
F1908       F  0.39060815  0.70919736  0.45580892    -0.20300
F1909       F  0.42638218  0.67385520  0.44101339    -0.19900
F1910       F  0.26171882  0.59969287  0.42124529    -0.20000
F1911       F  0.30538745  0.56571052  0.41331284    -0.20300
F1912       F  0.29157898  0.60831562  0.39431834    -0.23000
C1913       C  0.37083711  0.85027576  0.44122630    -0.05800
C1914       C  0.35192850  0.84144232  0.42474584     0.00100
C1915       C  0.32231406  0.85933082  0.41975553    -0.08500
C1916       C  0.31288294  0.88622358  0.43138057    -0.05800
C1917       C  0.33234758  0.89632902  0.44758636     0.00100
C1918       C  0.36166354  0.87758078  0.45281845    -0.08400
C1919       C  0.38310833  0.88584670  0.47048290     0.62000
H1920       H  0.39336184  0.83590269  0.44464015     0.12700
H1921       H  0.29032855  0.90008123  0.42742445     0.12700
C1922       C  0.30118714  0.85051106  0.40192652     0.62200
F1923       F  0.40945282  0.86352183  0.47321121    -0.22900
F1924       F  0.36298000  0.88500610  0.48682793    -0.20300
F1925       F  0.39715272  0.91686018  0.46836777    -0.19900
F1926       F  0.29295661  0.81735784  0.40228170    -0.20000
F1927       F  0.31931305  0.85704448  0.38527189    -0.20300
F1928       F  0.27127383  0.86856072  0.40101558    -0.23000
N1929       N  0.87877728  0.30546147  0.37580879    -0.36600
N1930       N  0.87151330  0.25806198  0.40772805    -0.57200
N1931       N  0.88469087  0.20585689  0.38012788    -0.36600
N1932       N  0.89384610  0.25272177  0.34892579    -0.57200
C1933       C  0.87791552  0.32554480  0.39150054     0.26900
C1934       C  0.89256743  0.32289198  0.36106130     0.26900
C1935       C  0.88766009  0.18976471  0.39728317     0.26900
C1936       C  0.89892224  0.18634500  0.36643901     0.26900
C1937       C  0.85788950  0.28519165  0.41608102     0.35600
C1938       C  0.86139336  0.23191026  0.41841626     0.35600
C1939       C  0.89298013  0.27822654  0.33624576     0.35600
C1940       C  0.89373401  0.22460831  0.33832863     0.35600
C1941       C  0.89082669  0.35620560  0.38665671    -0.21900
C1942       C  0.90043762  0.35442995  0.36754430    -0.21900
C1943       C  0.90421972  0.15986248  0.39450411    -0.21900
C1944       C  0.91137509  0.15769395  0.37503786    -0.21900
C1945       C  0.83985128  0.27636722  0.43249625    -0.23000
C1946       C  0.84178995  0.24248424  0.43385899    -0.23000
C1947       C  0.89201623  0.26628105  0.31738486    -0.23000
C1948       C  0.89261901  0.23225915  0.31870105    -0.23000
C1949       C  0.86289897  0.31785178  0.40950788    -0.18300
C1950       C  0.89653690  0.31182834  0.34164151    -0.18300
C1951       C  0.89853442  0.19254835  0.34621122    -0.18300
C1952       C  0.87090024  0.19884372  0.41459043    -0.18300
H1953       H  0.89286376  0.37776966  0.39587099     0.14600
H1954       H  0.91144917  0.37439280  0.35930433     0.14600
H1955       H  0.90935152  0.14101030  0.40529638     0.14600
H1956       H  0.92344144  0.13689338  0.36795354     0.14600
H1957       H  0.82647526  0.29262069  0.44235080     0.12900
H1958       H  0.83031654  0.22743411  0.44498582     0.12900
H1959       H  0.89204555  0.28059615  0.30410859     0.12900
H1960       H  0.89321089  0.21514721  0.30662373     0.12900
H1961       H  0.86691493  0.28267237  0.37475625     0.26100
H1962       H  0.86933140  0.22634578  0.37744693     0.26100
N1963       N  0.63292588  0.30104328  0.37881454    -0.36600
N1964       N  0.62843849  0.25057728  0.34851334    -0.57200
N1965       N  0.63535246  0.20146757  0.37879421    -0.36600
N1966       N  0.64099925  0.25159194  0.40836026    -0.57200
C1967       C  0.63576541  0.31912118  0.36240350     0.26900
C1968       C  0.64550868  0.31947385  0.39362891     0.26900
C1969       C  0.64113022  0.18338221  0.36263213     0.26900
C1970       C  0.64721429  0.18378774  0.39405421     0.26900
C1971       C  0.61593702  0.27703459  0.33874898     0.35600
C1972       C  0.61872610  0.22328922  0.33858054     0.35600
C1973       C  0.63837380  0.27841763  0.41987414     0.35600
C1974       C  0.63683265  0.22505938  0.41987713     0.35600
C1975       C  0.65023617  0.34938489  0.36680050    -0.21900
C1976       C  0.65654609  0.34954451  0.38648415    -0.21900
C1977       C  0.65729618  0.15405501  0.36762959    -0.21900
C1978       C  0.66151665  0.15448060  0.38748766    -0.21900
C1979       C  0.59836457  0.26652727  0.32237871    -0.23000
C1980       C  0.60048317  0.23243710  0.32214870    -0.23000
C1981       C  0.63239533  0.26901007  0.43887715    -0.23000
C1982       C  0.63126266  0.23504818  0.43887498    -0.23000
C1983       C  0.62224509  0.31035326  0.34402023    -0.18300
C1984       C  0.64495080  0.31079771  0.41357215    -0.18300
C1985       C  0.64249374  0.19225775  0.41376357    -0.18300
C1986       C  0.62703567  0.19049313  0.34421525    -0.18300
H1987       H  0.65516244  0.36951128  0.35688539     0.14600
H1988       H  0.66731134  0.36982366  0.39466127     0.14600
H1989       H  0.66418946  0.13393170  0.35806147     0.14600
H1990       H  0.67248836  0.13480877  0.39617600     0.14600
H1991       H  0.58578006  0.28185049  0.31161484     0.12900
H1992       H  0.58962909  0.21625530  0.31127097     0.12900
H1993       H  0.63011235  0.28489964  0.45145276     0.12900
H1994       H  0.62800532  0.21948463  0.45149744     0.12900
H1995       H  0.61918374  0.27937907  0.38004938     0.26100
H1996       H  0.61948614  0.22199602  0.37965932     0.26100
N1997       N  0.81420487  0.46913799  0.47622691    -0.06200
N1998       N  0.83547788  0.44474869  0.47188243    -0.58300
N1999       N  0.78901812  0.04381466  0.46405077    -0.05800
N2000       N  0.79085549  0.06836033  0.45160490    -0.60400
N2001       N  0.81430070  0.04495467  0.47657814    -0.05400
N2002       N  0.83390850  0.07069130  0.47271306    -0.58300
N2003       N  0.78888485  0.46964415  0.46367788    -0.05100
N2004       N  0.79235869  0.44611260  0.45071759    -0.60800
C2005       C  0.82140058  0.43055919  0.45583715     0.96000
C2006       C  0.81897660  0.08499735  0.45687631     0.95800
N2007       N  0.68665765  0.04157502  0.47897536    -0.06300
N2008       N  0.66719079  0.06817383  0.47739361    -0.58900
N2009       N  0.71002749  0.46664581  0.46503393    -0.04500
N2010       N  0.70713790  0.44156627  0.45293330    -0.60100
N2011       N  0.68658490  0.46538369  0.47850838    -0.06400
N2012       N  0.66700867  0.43926061  0.47570548    -0.59100
N2013       N  0.71044634  0.04188240  0.46567419    -0.04100
N2014       N  0.70790975  0.06852079  0.45485044    -0.60200
Mn2015     Mn  0.75068044  0.00491766  0.46428322     1.18400
C2016       C  0.68118714  0.08475382  0.46240401     0.98100
C2017       C  0.68012102  0.42475268  0.45959438     0.98800
N2018       N  0.81557523  0.04546782  0.52241023    -0.06400
N2019       N  0.83430321  0.07228047  0.52470660    -0.62700
N2020       N  0.79383077  0.46998482  0.53627130    -0.05200
N2021       N  0.79838521  0.44610839  0.54891052    -0.63400
N2022       N  0.81741110  0.46921530  0.52287635    -0.05900
N2023       N  0.83862121  0.44427852  0.52632024    -0.63000
N2024       N  0.79159346  0.04476096  0.53556598    -0.04800
N2025       N  0.79351307  0.07066582  0.54695918    -0.63700
Mn2026     Mn  0.81783404  0.00650473  0.49985456     1.10700
C2027       C  0.82019870  0.08783428  0.54019047     0.99300
C2028       C  0.82628789  0.42997207  0.54270890     0.99400
N2029       N  0.69032909  0.46591068  0.52440921    -0.05900
N2030       N  0.67136695  0.43966698  0.52752509    -0.61300
N2031       N  0.71247959  0.04262087  0.53706814    -0.05200
N2032       N  0.70843125  0.06760109  0.54908964    -0.58000
N2033       N  0.68747144  0.04167534  0.52436370    -0.06500
N2034       N  0.66579203  0.06618895  0.52748988    -0.60800
N2035       N  0.71533415  0.46715860  0.53713030    -0.05500
N2036       N  0.71411327  0.44184535  0.54907964    -0.58000
Mn2037     Mn  0.68699042  0.00325260  0.50164672     1.20200
Mn2038     Mn  0.75370957  0.00600671  0.53716914     1.10100
Cl2039     Cl  0.75236674  0.00507764  0.50073466    -0.86000
C2040       C  0.68654403  0.42506162  0.54301460     0.96300
C2041       C  0.67916578  0.08199349  0.54309510     0.96100
N2042       N  0.88726391  0.30565718  0.62202217    -0.36600
N2043       N  0.87511171  0.25728185  0.59151788    -0.57200
N2044       N  0.88147597  0.20624439  0.62093360    -0.36600
N2045       N  0.89494414  0.25471504  0.65067107    -0.57200
C2046       C  0.88878346  0.32464199  0.60593255     0.26900
C2047       C  0.90101402  0.32317838  0.63681743     0.26900
C2048       C  0.88247575  0.18850475  0.60432182     0.26900
C2049       C  0.89456276  0.18695973  0.63519237     0.26900
C2050       C  0.86477464  0.28488588  0.58214039     0.35600
C2051       C  0.86209634  0.23152200  0.58151921     0.35600
C2052       C  0.89498829  0.28098941  0.66266120     0.35600
C2053       C  0.89193924  0.22780724  0.66197792     0.35600
C2054       C  0.90367933  0.35462289  0.61048056    -0.21900
C2055       C  0.91152598  0.35366470  0.62998134    -0.21900
C2056       C  0.89624630  0.15754134  0.60800234    -0.21900
C2057       C  0.90400733  0.15658688  0.62751387    -0.21900
C2058       C  0.84592171  0.27662600  0.56578069    -0.23000
C2059       C  0.84422040  0.24269234  0.56538986    -0.23000
C2060       C  0.89180689  0.27081379  0.68178152    -0.23000
C2061       C  0.88985161  0.23692710  0.68134615    -0.23000
C2062       C  0.87263858  0.31736008  0.58809904    -0.18300
C2063       C  0.90166776  0.31344137  0.65656624    -0.18300
C2064       C  0.89610786  0.19536338  0.65512469    -0.18300
C2065       C  0.86706603  0.19810653  0.58665665    -0.18300
H2066       H  0.90741230  0.37542898  0.60087675     0.14600
H2067       H  0.92271270  0.37356617  0.63829441     0.14600
H2068       H  0.89945572  0.13746330  0.59778000     0.14600
H2069       H  0.91465253  0.13563629  0.63524045     0.14600
H2070       H  0.83437841  0.29329795  0.55533765     0.12900
H2071       H  0.83115763  0.22796830  0.55458613     0.12900
H2072       H  0.89209199  0.28609159  0.69468511     0.12900
H2073       H  0.88847820  0.22079420  0.69384704     0.12900
H2074       H  0.87303855  0.28427926  0.62331082     0.26100
H2075       H  0.86826953  0.22829320  0.62285480     0.26100
N2076       N  0.63857743  0.30430455  0.62482668    -0.36600
N2077       N  0.63079497  0.25408031  0.65439652    -0.57200
N2078       N  0.63504511  0.20491574  0.62310870    -0.36600
N2079       N  0.64444118  0.25504361  0.59445463    -0.57200
C2080       C  0.64084320  0.32234965  0.64131953     0.26900
C2081       C  0.65139687  0.32273690  0.61025779     0.26900
C2082       C  0.63817465  0.18612119  0.63923459     0.26900
C2083       C  0.64573543  0.18643370  0.60791256     0.26900
C2084       C  0.61839321  0.28063075  0.66397288     0.35600
C2085       C  0.61789010  0.22721891  0.66323804     0.35600
C2086       C  0.64315705  0.28239610  0.58337972     0.35600
C2087       C  0.63984372  0.22917793  0.58242075     0.35600
C2088       C  0.65507561  0.35275150  0.63721565    -0.21900
C2089       C  0.66202193  0.35291167  0.61763444    -0.21900
C2090       C  0.65081008  0.15524170  0.63426984    -0.21900
C2091       C  0.65577630  0.15548625  0.61450985    -0.21900
C2092       C  0.59796141  0.27062009  0.67915289    -0.23000
C2093       C  0.59780504  0.23664633  0.67875997    -0.23000
C2094       C  0.63746190  0.27398176  0.56410026    -0.23000
C2095       C  0.63514618  0.24008400  0.56351292    -0.23000
C2096       C  0.62613405  0.31364707  0.65927859    -0.18300
C2097       C  0.65095660  0.31421156  0.59028104    -0.18300
C2098       C  0.64457033  0.19610869  0.58814119    -0.18300
C2099       C  0.62478701  0.19437034  0.65759590    -0.18300
H2100       H  0.65917205  0.37299781  0.64721721     0.14600
H2101       H  0.67262924  0.37336972  0.60963405     0.14600
H2102       H  0.65492869  0.13435738  0.64382946     0.14600
H2103       H  0.66486328  0.13489442  0.60592748     0.14600
H2104       H  0.58459821  0.28616205  0.68939884     0.12900
H2105       H  0.58426139  0.22072409  0.68863172     0.12900
H2106       H  0.63626540  0.29043763  0.55172359     0.12900
H2107       H  0.63201748  0.22510994  0.55060280     0.12900
H2108       H  0.62466634  0.28276788  0.62320827     0.26100
H2109       H  0.62180037  0.22713832  0.62226540     0.26100
N2110       N  0.97476434  0.43770287  0.26955310    -0.06200
N2111       N  0.97041761  0.41097687  0.27998026    -0.58300
N2112       N  0.94633577  0.46957696  0.22944512    -0.05800
N2113       N  0.92094820  0.46719994  0.21694263    -0.60400
N2114       N  0.96989344  0.44723222  0.22575737    -0.05400
N2115       N  0.96008116  0.42842983  0.21096712    -0.58300
N2116       N  0.95195853  0.46045734  0.27374496    -0.05100
N2117       N  0.93086092  0.44855527  0.28704247    -0.60800
C2118       C  0.94317438  0.41757253  0.29095868     0.96000
C2119       C  0.92974498  0.44171655  0.20537912     0.95800
N2120       N  0.97234111  0.06675656  0.22945029    -0.06300
N2121       N  0.96276188  0.08837938  0.21595779    -0.58900
N2122       N  0.95442173  0.04725448  0.27664610    -0.04500
N2123       N  0.93489444  0.05808183  0.29111575    -0.60100
N2124       N  0.97815964  0.06922728  0.27327367    -0.06400
N2125       N  0.97600072  0.09410916  0.28530909    -0.59100
N2126       N  0.94796438  0.04519300  0.23232035    -0.04100
N2127       N  0.92219593  0.05084336  0.22054891    -0.60200
Mn2128     Mn  0.94923507  0.50480317  0.25391596     1.18400
C2129       C  0.93146242  0.07773907  0.21046123     0.98100
C2130       C  0.94961541  0.08721427  0.29668046     0.98800
N2131       N  0.55435258  0.44219496  0.22732480    -0.06400
N2132       N  0.56243144  0.42096743  0.21334698    -0.62700
N2133       N  0.57648941  0.45880707  0.27458515    -0.05200
N2134       N  0.59708835  0.44829282  0.28869637    -0.63400
N2135       N  0.55239769  0.43689882  0.27158110    -0.05900
N2136       N  0.55531813  0.41203189  0.28375082    -0.63000
N2137       N  0.57957686  0.46296687  0.23017184    -0.04800
N2138       N  0.60450699  0.45696485  0.21797606    -0.63700
Mn2139     Mn  0.51279866  0.44061161  0.24925107     1.10700
C2140       C  0.59355869  0.43106612  0.20741774     0.99300
C2141       C  0.58282526  0.41937499  0.29448969     0.99400
N2142       N  0.55569054  0.06572052  0.27260710    -0.05900
N2143       N  0.56013620  0.08995651  0.28498944    -0.61300
N2144       N  0.58080382  0.04074689  0.23059956    -0.05200
N2145       N  0.60640866  0.04641268  0.21894280    -0.58000
N2146       N  0.55720397  0.06368925  0.22858693    -0.06500
N2147       N  0.56716142  0.08615280  0.21582204    -0.60800
N2148       N  0.57891337  0.04250970  0.27491729    -0.05500
N2149       N  0.60068051  0.05163139  0.28879004    -0.58000
Mn2150     Mn  0.51618724  0.06609107  0.25046217     1.20200
Mn2151     Mn  0.58062997  0.50052330  0.25341484     1.10100
Cl2152     Cl  0.51555209  0.50294498  0.25205179    -0.86000
C2153       C  0.58800842  0.08123131  0.29505335     0.96300
C2154       C  0.59757726  0.07438405  0.20960028     0.96100
N2155       N  0.96864271  0.15784660  0.97457702    -0.06200
N2156       N  0.93973905  0.14158618  0.97219459    -0.58300
N2157       N  0.55106535  0.18475401  0.96383499    -0.05800
N2158       N  0.57749190  0.18284544  0.95241557    -0.60400
N2159       N  0.55152210  0.16075498  0.97669833    -0.05400
N2160       N  0.57892820  0.14200464  0.97432309    -0.58300
N2161       N  0.97072385  0.18178651  0.96177107    -0.05100
N2162       N  0.94385692  0.18229673  0.95040453    -0.60800
C2163       C  0.92481641  0.15712305  0.95685099     0.96000
C2164       C  0.59453517  0.15610855  0.95889871     0.95800
N2165       N  0.55179638  0.28546803  0.97721435    -0.06300
N2166       N  0.57681630  0.30626182  0.97345539    -0.58900
N2167       N  0.97375610  0.25806523  0.96234006    -0.04500
N2168       N  0.95005779  0.26269990  0.94913573    -0.60100
N2169       N  0.97339900  0.28188915  0.97531655    -0.06400
N2170       N  0.94898492  0.30344480  0.97084857    -0.59100
N2171       N  0.55137703  0.26174945  0.96418474    -0.04100
N2172       N  0.57574128  0.26588522  0.95151489    -0.60200
Mn2173     Mn  0.51261183  0.22339807  0.96308526     1.18400
C2174       C  0.59171456  0.29355162  0.95726642     0.98100
C2175       C  0.93459817  0.29096738  0.95430944     0.98800
N2176       N  0.54852508  0.15842889  0.02236918    -0.06400
N2177       N  0.57131425  0.13536491  0.02643132    -0.62700
N2178       N  0.96973142  0.17905509  0.03344530    -0.05200
N2179       N  0.94439644  0.17584318  0.04560493    -0.63400
N2180       N  0.96890841  0.15571766  0.02014478    -0.05900
N2181       N  0.94282976  0.13594399  0.02303187    -0.63000
N2182       N  0.54841788  0.18140642  0.03586995    -0.04800
N2183       N  0.57081196  0.17434931  0.04952382    -0.63700
Mn2184     Mn  0.51093839  0.15909891  0.99888230     1.10700
C2185       C  0.58460493  0.14555411  0.04352465     0.99300
C2186       C  0.92803595  0.14890400  0.03902335     0.99400
N2187       N  0.97326386  0.28070552  0.02217211    -0.05900
N2188       N  0.94886551  0.30236625  0.02621235    -0.61300
N2189       N  0.55068011  0.25947177  0.03624151    -0.05200
N2190       N  0.57599834  0.26178511  0.04871526    -0.58000
N2191       N  0.55146657  0.28383951  0.02359017    -0.06500
N2192       N  0.57773794  0.30325435  0.02735721    -0.60800
N2193       N  0.97296102  0.25644415  0.03487847    -0.05500
N2194       N  0.94867546  0.26104539  0.04763886    -0.58000
Mn2195     Mn  0.51210117  0.28660085  0.00004565     1.20200
Mn2196     Mn  0.51113666  0.22166117  0.03598504     1.10100
Cl2197     Cl  0.51187851  0.22275988  0.99951720    -0.86000
C2198       C  0.93362720  0.28970130  0.04223013     0.96300
C2199       C  0.59308267  0.28876093  0.04296287     0.96100
N2200       N  0.81145184  0.37943562  0.87960525    -0.36600
N2201       N  0.76064206  0.36106446  0.90826615    -0.57200
N2202       N  0.70701486  0.38815591  0.88259108    -0.36600
N2203       N  0.75802349  0.40334685  0.85312673    -0.57200
C2204       C  0.83201398  0.36425111  0.89272177     0.26900
C2205       C  0.83048657  0.38687602  0.86393246     0.26900
C2206       C  0.68760992  0.37319288  0.89616413     0.26900
C2207       C  0.68651758  0.39580946  0.86727506     0.26900
C2208       C  0.78839562  0.34868804  0.91751126     0.35600
C2209       C  0.73339694  0.35239882  0.91892595     0.35600
C2210       C  0.78538348  0.41226239  0.84259954     0.35600
C2211       C  0.73038217  0.41572900  0.84383759     0.35600
C2212       C  0.86470304  0.36265344  0.88532213    -0.21900
C2213       C  0.86363670  0.37649023  0.86717723    -0.21900
C2214       C  0.65415729  0.37271157  0.88965215    -0.21900
C2215       C  0.65358157  0.38647273  0.87144235    -0.21900
C2216       C  0.77862996  0.33170238  0.93400645    -0.23000
C2217       C  0.74395409  0.33409276  0.93492868    -0.23000
C2218       C  0.77499965  0.42997130  0.82636706    -0.23000
C2219       C  0.74024227  0.43217989  0.82714860    -0.23000
C2220       C  0.82243931  0.35124652  0.91107351    -0.18300
C2221       C  0.81966719  0.40442255  0.84715644    -0.18300
C2222       C  0.69620977  0.41132192  0.84964482    -0.18300
C2223       C  0.69889433  0.35842071  0.91389433    -0.18300
H2224       H  0.88727311  0.35259843  0.89217718     0.14600
H2225       H  0.88512890  0.37909903  0.85760356     0.14600
H2226       H  0.63231474  0.36274505  0.89701495     0.14600
H2227       H  0.63130726  0.38920011  0.86228123     0.14600
H2228       H  0.79476800  0.31848376  0.94418289     0.12900
H2229       H  0.72825465  0.32293446  0.94594184     0.12900
H2230       H  0.79082376  0.44030855  0.81513610     0.12900
H2231       H  0.72409315  0.44454626  0.81661504     0.12900
H2232       H  0.78657529  0.38642418  0.88172666     0.26100
H2233       H  0.73218632  0.39472421  0.88424096     0.26100
N2234       N  0.75758538  0.15997192  0.91284297    -0.36600
N2235       N  0.70243593  0.14338509  0.87043043    -0.57200
N2236       N  0.75485889  0.12783705  0.84247923    -0.36600
N2237       N  0.80895334  0.14409570  0.86977699    -0.57200
C2238       C  0.72979294  0.17224571  0.90379291     0.26900
C2239       C  0.78430043  0.17334892  0.90363885     0.26900
C2240       C  0.72666645  0.12706051  0.83102662     0.26900
C2241       C  0.78223899  0.12785312  0.83059748     0.26900
C2242       C  0.68365844  0.14676115  0.88668149     0.35600
C2243       C  0.68219039  0.13043968  0.85666852     0.35600
C2244       C  0.82896991  0.14718636  0.88569037     0.35600
C2245       C  0.82831458  0.13126159  0.85566492     0.35600
C2246       C  0.73883199  0.19505604  0.88976964    -0.21900
C2247       C  0.77343577  0.19577146  0.88968666    -0.21900
C2248       C  0.73631094  0.12704154  0.81168163    -0.21900
C2249       C  0.77127243  0.12744887  0.81141621    -0.21900
C2250       C  0.65070198  0.13656465  0.88312411    -0.23000
C2251       C  0.64977417  0.12615175  0.86404093    -0.23000
C2252       C  0.86158545  0.13645673  0.88169253    -0.23000
C2253       C  0.86123587  0.12649542  0.86254077    -0.23000
C2254       C  0.69785487  0.15753783  0.90453911    -0.18300
C2255       C  0.81655548  0.15900060  0.90360284    -0.18300
C2256       C  0.81678340  0.12506049  0.83654624    -0.18300
C2257       C  0.69263668  0.12345782  0.83748617    -0.18300
H2258       H  0.72213593  0.20756492  0.87956927     0.14600
H2259       H  0.78899658  0.20873051  0.87930215     0.14600
H2260       H  0.71984423  0.12585012  0.79905387     0.14600
H2261       H  0.78688796  0.12662435  0.79854954     0.14600
H2262       H  0.62955028  0.13671461  0.89305578     0.12900
H2263       H  0.62778240  0.11646231  0.85651284     0.12900
H2264       H  0.88335143  0.13621274  0.89135509     0.12900
H2265       H  0.88274248  0.11684639  0.85460732     0.12900
H2266       H  0.75831528  0.13977375  0.92229027     0.26100
H2267       H  0.75547833  0.12438705  0.85744718     0.26100
N2268       N  0.56735018  0.46593263  0.72224308    -0.06200
N2269       N  0.58768246  0.44047669  0.71830754    -0.58300
N2270       N  0.54147231  0.04005316  0.70590329    -0.05800
N2271       N  0.54369594  0.06397468  0.69311496    -0.60400
N2272       N  0.56662975  0.04140246  0.71844140    -0.05400
N2273       N  0.58659699  0.06663008  0.71427606    -0.58300
N2274       N  0.54198180  0.46640078  0.70980453    -0.05100
N2275       N  0.54415856  0.44178142  0.69755381    -0.60800
C2276       C  0.57259339  0.42559857  0.70267591     0.96000
C2277       C  0.57189349  0.08050058  0.69827118     0.95800
N2278       N  0.94190858  0.04407421  0.72096333    -0.06300
N2279       N  0.92118798  0.06929109  0.71762691    -0.58900
N2280       N  0.96656285  0.46463000  0.71089832    -0.04500
N2281       N  0.96388160  0.43940326  0.69901981    -0.60100
N2282       N  0.94261957  0.46422620  0.72406878    -0.06400
N2283       N  0.92274382  0.43829440  0.72124120    -0.59100
N2284       N  0.96614496  0.04337060  0.70800146    -0.04100
N2285       N  0.96257718  0.06775971  0.69554759    -0.60200
Mn2286     Mn  0.50304474  0.50396476  0.70887483     1.18400
C2287       C  0.93437491  0.08364349  0.70160421     0.98100
C2288       C  0.93653384  0.42312486  0.70548711     0.98800
N2289       N  0.57009244  0.04515501  0.76420180    -0.06400
N2290       N  0.59569362  0.06513779  0.76773794    -0.62700
N2291       N  0.54899931  0.47509148  0.78326187    -0.05200
N2292       N  0.56065625  0.45984184  0.79895427    -0.63400
N2293       N  0.57141466  0.47279613  0.76914244    -0.05900
N2294       N  0.59825001  0.45580714  0.77507148    -0.63000
N2295       N  0.54731713  0.04750911  0.77807094    -0.04800
N2296       N  0.55740379  0.06909796  0.79126470    -0.63700
Mn2297     Mn  0.57020541  0.50687788  0.74410642     1.10700
C2298       C  0.58738972  0.08043018  0.78451136     0.99300
C2299       C  0.59112935  0.44728290  0.79357693     0.99400
N2300       N  0.94288634  0.47066345  0.77042322    -0.05900
N2301       N  0.91786643  0.45148985  0.77605260    -0.61300
N2302       N  0.96460827  0.05007607  0.77996735    -0.05200
N2303       N  0.95478325  0.07233415  0.79286525    -0.58000
N2304       N  0.94163143  0.04773021  0.76608679    -0.06500
N2305       N  0.91643653  0.06855587  0.76911512    -0.60800
N2306       N  0.96591519  0.47336205  0.78431124    -0.05500
N2307       N  0.95629366  0.45630020  0.79972067    -0.58000
Mn2308     Mn  0.94068455  0.50509302  0.74580005     1.20200
Mn2309     Mn  0.50723459  0.51223407  0.78232948     1.10100
Cl2310     Cl  0.50529787  0.50723304  0.74549389    -0.86000
C2311       C  0.92657392  0.44210151  0.79423417     0.96300
C2312       C  0.92487123  0.08418788  0.78575387     0.96100
N2313       N  0.75880846  0.12539889  0.09682870    -0.36600
N2314       N  0.81227785  0.12733449  0.12492577    -0.57200
N2315       N  0.76365647  0.13487842  0.15662967    -0.36600
N2316       N  0.71024681  0.13243510  0.12730327    -0.57200
C2317       C  0.78521438  0.11490157  0.08610746     0.26900
C2318       C  0.73037358  0.11592252  0.08748752     0.26900
C2319       C  0.79168397  0.12391165  0.16621454     0.26900
C2320       C  0.73632111  0.12691970  0.16749715     0.26900
C2321       C  0.83069293  0.13150553  0.10865101     0.35600
C2322       C  0.83321676  0.13377765  0.13999833     0.35600
C2323       C  0.68965066  0.13686245  0.11174852     0.35600
C2324       C  0.69219401  0.14111180  0.14309303     0.35600
C2325       C  0.77365704  0.09835862  0.06977058    -0.21900
C2326       C  0.73879036  0.09879667  0.07070318    -0.21900
C2327       C  0.78217447  0.11018532  0.18380078    -0.21900
C2328       C  0.74721453  0.11188653  0.18455278    -0.21900
C2329       C  0.86342435  0.14112074  0.11337912    -0.23000
C2330       C  0.86515116  0.14208566  0.13331301    -0.23000
C2331       C  0.65850970  0.14927971  0.11763884    -0.23000
C2332       C  0.65994604  0.15143266  0.13756092    -0.23000
C2333       C  0.81901800  0.12346485  0.08982339    -0.18300
C2334       C  0.69736862  0.12547989  0.09284316    -0.18300
C2335       C  0.70190737  0.13267353  0.16220992    -0.18300
C2336       C  0.82550409  0.12596008  0.15936976    -0.18300
H2337       H  0.78876225  0.08794560  0.05818430     0.14600
H2338       H  0.72160862  0.08864243  0.05995118     0.14600
H2339       H  0.79864984  0.09938196  0.19475377     0.14600
H2340       H  0.73159325  0.10274092  0.19622617     0.14600
H2341       H  0.88426265  0.14552825  0.10357366     0.12900
H2342       H  0.88760991  0.14711262  0.14193013     0.12900
H2343       H  0.63646861  0.15450796  0.10867147     0.12900
H2344       H  0.63917161  0.15822520  0.14699153     0.12900
H2345       H  0.76012146  0.14242007  0.10814455     0.26100
H2346       H  0.76334227  0.14839088  0.14375730     0.26100
N2347       N  0.76185210  0.37996777  0.15222895    -0.36600
N2348       N  0.81444264  0.36363966  0.12350981    -0.57200
N2349       N  0.76309460  0.34136589  0.09690365    -0.36600
N2350       N  0.71046870  0.35947476  0.12481772    -0.57200
C2351       C  0.78891430  0.39666403  0.15941685     0.26900
C2352       C  0.73340900  0.39255883  0.16055752     0.26900
C2353       C  0.79057033  0.34005492  0.08521794     0.26900
C2354       C  0.73518140  0.34031150  0.08540309     0.26900
C2355       C  0.83371044  0.36966549  0.13940813     0.35600
C2356       C  0.83466276  0.34775719  0.11067488     0.35600
C2357       C  0.69130387  0.36161659  0.14098257     0.35600
C2358       C  0.69190077  0.34272641  0.11157560     0.35600
C2359       C  0.77755702  0.41997906  0.17268386    -0.21900
C2360       C  0.74256392  0.41742826  0.17337841    -0.21900
C2361       C  0.78001345  0.33773542  0.06602239    -0.21900
C2362       C  0.74502328  0.33810125  0.06612543    -0.21900
C2363       C  0.86631752  0.35747082  0.13668527    -0.23000
C2364       C  0.86701222  0.34394527  0.11839467    -0.23000
C2365       C  0.66051880  0.34593741  0.13805353    -0.23000
C2366       C  0.66087592  0.33398175  0.11939017    -0.23000
C2367       C  0.82358405  0.38983345  0.15514066    -0.18300
C2368       C  0.69976780  0.38087406  0.15740695    -0.18300
C2369       C  0.70132376  0.33794725  0.09201168    -0.18300
C2370       C  0.82471098  0.33834152  0.09168203    -0.18300
H2371       H  0.79291865  0.43689745  0.18110406     0.14600
H2372       H  0.72580799  0.43198940  0.18241612     0.14600
H2373       H  0.79583972  0.33552022  0.05329654     0.14600
H2374       H  0.72868976  0.33603650  0.05348235     0.14600
H2375       H  0.88771855  0.35930239  0.14655971     0.12900
H2376       H  0.88891520  0.33290020  0.11149518     0.12900
H2377       H  0.63966805  0.34405624  0.14814065     0.12900
H2378       H  0.64035070  0.32101531  0.11223727     0.12900
H2379       H  0.76309036  0.35883908  0.14366096     0.26100
H2380       H  0.76334164  0.33873536  0.11190589     0.26100
C2381       C  0.63822154  0.06944212  0.80454196    -0.05800
C2382       C  0.61402074  0.09236591  0.79785866     0.00100
C2383       C  0.61523323  0.12542021  0.80431067    -0.08500
C2384       C  0.64197249  0.13502140  0.81671676    -0.05800
C2385       C  0.66632739  0.11211075  0.82337640     0.00100
C2386       C  0.66393801  0.07855171  0.81769617    -0.08400
C2387       C  0.68726936  0.05224479  0.82625818     0.62000
H2388       H  0.63619364  0.04403861  0.79973390     0.12700
H2389       H  0.64378777  0.16036417  0.82163663     0.12700
C2390       C  0.58834484  0.15016621  0.79801046     0.62200
F2391       F  0.67861945  0.02089956  0.81997353    -0.22900
F2392       F  0.68510513  0.05284988  0.84630040    -0.20300
F2393       F  0.72042140  0.05790395  0.82090295    -0.19900
F2394       F  0.55662207  0.13897895  0.80330908    -0.20000
F2395       F  0.58923589  0.15394389  0.77805527    -0.20300
F2396       F  0.59323868  0.18075963  0.80652542    -0.23000
C2397       C  0.86211819  0.13850379  0.81283994    -0.05800
C2398       C  0.84260641  0.11438087  0.82216971     0.00100
C2399       C  0.84995026  0.08052292  0.81923269    -0.08500
C2400       C  0.87768134  0.07181720  0.80757734    -0.05800
C2401       C  0.89770518  0.09584926  0.79866806     0.00100
C2402       C  0.88955656  0.12963864  0.80085100    -0.08400
C2403       C  0.91012029  0.15588328  0.79068171     0.62000
H2404       H  0.85603575  0.16427317  0.81532985     0.12700
H2405       H  0.88402937  0.04604082  0.80525856     0.12700
C2406       C  0.82883462  0.05376744  0.82859156     0.62200
F2407       F  0.89702467  0.18722819  0.79379195    -0.22900
F2408       F  0.91014101  0.15003699  0.77087625    -0.20300
F2409       F  0.94315656  0.15498006  0.79757727    -0.19900
F2410       F  0.79523584  0.05722633  0.82307098    -0.20000
F2411       F  0.83133491  0.05608110  0.84859277    -0.20300
F2412       F  0.83948888  0.02259435  0.82301560    -0.23000
C2413       C  0.66415234  0.40187033  0.81883742    -0.05800
C2414       C  0.66875534  0.42122402  0.83557633     0.00100
C2415       C  0.64823107  0.44970066  0.83830772    -0.08500
C2416       C  0.62263851  0.45696243  0.82449747    -0.05800
C2417       C  0.61802692  0.43754967  0.80774808     0.00100
C2418       C  0.63964423  0.41001786  0.80459460    -0.08400
C2419       C  0.63690211  0.38940010  0.78623468     0.62000
H2420       H  0.68056433  0.38060342  0.81685240     0.12700
H2421       H  0.60645026  0.47839232  0.82647793     0.12700
C2422       C  0.65395323  0.47274034  0.85543303     0.62200
F2423       F  0.65760439  0.36169223  0.78701881    -0.22900
F2424       F  0.64659206  0.40807398  0.77042029    -0.20300
F2425       F  0.60381487  0.37900424  0.78358109    -0.19900
F2426       F  0.63469233  0.50133275  0.85381578    -0.20000
F2427       F  0.68775215  0.48164911  0.85641780    -0.20300
F2428       F  0.64519296  0.45724871  0.87253046    -0.23000
C2429       C  0.85486884  0.39423593  0.81788814    -0.05800
C2430       C  0.84666564  0.41506210  0.83344837     0.00100
C2431       C  0.86564236  0.44413982  0.83668148    -0.08500
C2432       C  0.89240595  0.45161867  0.82395718    -0.05800
C2433       C  0.90039772  0.43101199  0.80817150     0.00100
C2434       C  0.88145348  0.40177626  0.80508484    -0.08400
C2435       C  0.88971117  0.37833958  0.78854561     0.62000
H2436       H  0.84023826  0.37190441  0.81593106     0.12700
H2437       H  0.90678230  0.47409191  0.82596668     0.12700
C2438       C  0.85714361  0.46720321  0.85340223     0.62200
F2439       F  0.87112277  0.34948317  0.78961169    -0.22900
F2440       F  0.92378186  0.36995408  0.78920385    -0.20300
F2441       F  0.88237998  0.39332095  0.77096272    -0.19900
F2442       F  0.86146225  0.45106010  0.87093001    -0.20000
F2443       F  0.82373868  0.47759440  0.85179060    -0.20300
F2444       F  0.87769140  0.49480503  0.85359598    -0.23000
C2445       C  0.67369122  0.14329907  0.06111975    -0.05800
C2446       C  0.67013880  0.12383529  0.07790162     0.00100
C2447       C  0.64051085  0.10460099  0.08030064    -0.08500
C2448       C  0.61267800  0.11101025  0.06808427    -0.05800
C2449       C  0.61559642  0.13239088  0.05225182     0.00100
C2450       C  0.64718439  0.14617482  0.04754616    -0.08400
C2451       C  0.65269005  0.16263911  0.02801578     0.62000
H2452       H  0.69726556  0.15630426  0.05879445     0.12700
H2453       H  0.58845996  0.09951044  0.07102047     0.12700
C2454       C  0.63704826  0.07742586  0.09532410     0.62200
F2455       F  0.68491649  0.17580682  0.02658060    -0.22900
F2456       F  0.62927468  0.18760487  0.02494403    -0.20300
F2457       F  0.64869778  0.13935769  0.01349376    -0.19900
F2458       F  0.61423072  0.08714146  0.10940671    -0.20000
F2459       F  0.66757403  0.06924978  0.10415921    -0.20300
F2460       F  0.62494161  0.04923393  0.08633769    -0.23000
C2461       C  0.86959056  0.15915824  0.04862381    -0.05800
C2462       C  0.89696509  0.13702631  0.04812008     0.00100
C2463       C  0.89648826  0.10783747  0.05936056    -0.08500
C2464       C  0.86876865  0.10253201  0.07168805    -0.05800
C2465       C  0.84267070  0.12607667  0.07330824     0.00100
C2466       C  0.84221741  0.15427589  0.06114299    -0.08400
C2467       C  0.81375849  0.17980034  0.06192780     0.62000
H2468       H  0.87075588  0.18128355  0.03980425     0.12700
H2469       H  0.86844298  0.08127909  0.08123799     0.12700
C2470       C  0.92640454  0.08408559  0.05954682     0.62200
F2471       F  0.82108417  0.20751225  0.05097988    -0.22900
F2472       F  0.80844306  0.18996508  0.08084223    -0.20300
F2473       F  0.78417253  0.16623740  0.05468749    -0.19900
F2474       F  0.95489813  0.10002973  0.06660209    -0.20000
F2475       F  0.93264699  0.07299276  0.04090671    -0.20300
F2476       F  0.92047973  0.05685023  0.07117273    -0.23000
C2477       C  0.62521531  0.33578738  0.05738201    -0.05800
C2478       C  0.62303359  0.30169677  0.05376020     0.00100
C2479       C  0.64855772  0.28027931  0.06144815    -0.08500
C2480       C  0.67353940  0.29328635  0.07379061    -0.05800
C2481       C  0.67476984  0.32692487  0.07805660     0.00100
C2482       C  0.65103269  0.34887788  0.06938903    -0.08400
C2483       C  0.65337831  0.38582978  0.07275386     0.62000
H2484       H  0.60606068  0.35197353  0.05116087     0.12700
H2485       H  0.69254025  0.27722829  0.08030465     0.12700
C2486       C  0.65133840  0.24439260  0.05542867     0.62200
F2487       F  0.62871684  0.40301638  0.06244197    -0.22900
F2488       F  0.68480738  0.39690449  0.06685468    -0.20300
F2489       F  0.64932633  0.39289088  0.09224794    -0.19900
F2490       F  0.65087961  0.24298328  0.03539223    -0.20000
F2491       F  0.62489432  0.22627651  0.06294260    -0.20300
F2492       F  0.68130718  0.22989833  0.06183835    -0.23000
C2493       C  0.88629110  0.28166726  0.06504096    -0.05800
C2494       C  0.90407546  0.30384904  0.05313532     0.00100
C2495       C  0.89454448  0.33782523  0.05340211    -0.08500
C2496       C  0.86800300  0.34807198  0.06585573    -0.05800
C2497       C  0.85121552  0.32573719  0.07804868     0.00100
C2498       C  0.86045883  0.29199182  0.07766130    -0.08400
C2499       C  0.84348170  0.26695718  0.09079858     0.62000
H2500       H  0.89320906  0.25577061  0.06467705     0.12700
H2501       H  0.86042717  0.37379914  0.06647211     0.12700
C2502       C  0.91269165  0.36339370  0.04123117     0.62200
F2503       F  0.85657795  0.23549498  0.08819473    -0.22900
F2504       F  0.80904281  0.26616160  0.08687600    -0.20300
F2505       F  0.84848951  0.27538579  0.11004644    -0.19900
F2506       F  0.90824779  0.35639355  0.02172120    -0.20000
F2507       F  0.94694049  0.36322315  0.04577003    -0.20300
F2508       F  0.90034156  0.39498793  0.04451831    -0.23000
C2509       C  0.63322549  0.33938595  0.95307185    -0.05800
C2510       C  0.62002908  0.30922360  0.94618876     0.00100
C2511       C  0.63381199  0.29532637  0.92879038    -0.08500
C2512       C  0.66051856  0.31172821  0.91955880    -0.05800
C2513       C  0.67257884  0.34214984  0.92607801     0.00100
C2514       C  0.65894591  0.35644224  0.94308858    -0.08400
C2515       C  0.67099214  0.38983116  0.95031283     0.62000
H2516       H  0.62270529  0.35000298  0.96616001     0.12700
H2517       H  0.67166676  0.30158131  0.90649698     0.12700
C2518       C  0.62028122  0.26408878  0.91920630     0.62200
F2519       F  0.65474263  0.39923941  0.96722465    -0.22900
F2520       F  0.66449206  0.41355841  0.93630794    -0.20300
F2521       F  0.70546228  0.38876492  0.95410979    -0.19900
F2522       F  0.58664254  0.26863586  0.91396509    -0.20000
F2523       F  0.62333530  0.23766463  0.93176653    -0.20300
F2524       F  0.63775379  0.25594398  0.90247199    -0.23000
C2525       C  0.86407902  0.30621135  0.91652671    -0.05800
C2526       C  0.84994177  0.33579778  0.92320325     0.00100
C2527       C  0.86423481  0.35143386  0.93970528    -0.08500
C2528       C  0.89115133  0.33558667  0.94973107    -0.05800
C2529       C  0.90591441  0.30607945  0.94288206     0.00100
C2530       C  0.89316163  0.29212591  0.92515320    -0.08400
C2531       C  0.91040426  0.26368738  0.91443263     0.62000
H2532       H  0.85303161  0.29528039  0.90360487     0.12700
H2533       H  0.90146498  0.34673785  0.96276798     0.12700
C2534       C  0.85201858  0.38530521  0.94614123     0.62200
F2535       F  0.89562890  0.25773551  0.89646207    -0.22900
F2536       F  0.90821885  0.23489759  0.92507013    -0.20300
F2537       F  0.94408298  0.27121903  0.91114695    -0.19900
F2538       F  0.81832801  0.38403783  0.95146152    -0.20000
F2539       F  0.85547880  0.40751303  0.93102592    -0.20300
F2540       F  0.87047398  0.39696513  0.96186247    -0.23000
C2541       C  0.66236054  0.12316206  0.92658493    -0.05800
C2542       C  0.67997272  0.15292173  0.92351100     0.00100
C2543       C  0.67617402  0.17891660  0.93733893    -0.08500
C2544       C  0.65098201  0.17587949  0.95153060    -0.05800
C2545       C  0.62891075  0.14898241  0.95179713     0.00100
C2546       C  0.63588478  0.12116786  0.94016761    -0.08400
C2547       C  0.61366894  0.09081319  0.94106686     0.62000
H2548       H  0.66710869  0.10259540  0.91690105     0.12700
H2549       H  0.64568487  0.19629016  0.96125606     0.12700
C2550       C  0.69680260  0.21056736  0.93685541     0.62200
F2551       F  0.62568120  0.06573705  0.92924103    -0.22900
F2552       F  0.58101849  0.09875809  0.93513566    -0.20300
F2553       F  0.61290531  0.07918308  0.95994404    -0.19900
F2554       F  0.69340086  0.22592753  0.91902897    -0.19200
F2555       F  0.73044865  0.20318534  0.94043024    -0.20300
F2556       F  0.68668481  0.23298667  0.95089983    -0.23000
C2557       C  0.85247386  0.12587838  0.92638870    -0.05800
C2558       C  0.83693251  0.15637554  0.92190168     0.00100
C2559       C  0.84479478  0.18450636  0.93342924    -0.08500
C2560       C  0.87056551  0.18160985  0.94750587    -0.05800
C2561       C  0.88982943  0.15261946  0.94958214     0.00100
C2562       C  0.87955380  0.12366094  0.93981396    -0.08400
C2563       C  0.89823143  0.09120184  0.94278757     0.62000
H2564       H  0.84505507  0.10432486  0.91810200     0.12700
H2565       H  0.87847862  0.20318139  0.95564088     0.12700
C2566       C  0.82861150  0.21824518  0.92994672     0.62200
F2567       F  0.88552831  0.06654508  0.93089457    -0.22900
F2568       F  0.89477658  0.08129459  0.96188889    -0.20300
F2569       F  0.93230913  0.09483902  0.93867322    -0.19900
F2570       F  0.79432053  0.21698049  0.93364625    -0.20000
F2571       F  0.83369879  0.22796454  0.91094134    -0.20300
F2572       F  0.84210825  0.24228495  0.94197811    -0.23000
C2573       C  0.85754525  0.38883011  0.18577072    -0.05800
C2574       C  0.85099223  0.40395936  0.16778407     0.00100
C2575       C  0.87190302  0.43036568  0.16160558    -0.08500
C2576       C  0.89818992  0.44128364  0.17405971    -0.05800
C2577       C  0.90478623  0.42604518  0.19202738     0.00100
C2578       C  0.88425655  0.39934749  0.19800051    -0.08400
C2579       C  0.89044872  0.38230670  0.21732938     0.62000
H2580       H  0.84164312  0.36839730  0.19005733     0.12700
H2581       H  0.91369084  0.46211441  0.16994642     0.12700
C2582       C  0.86596915  0.44742784  0.14217010     0.62200
F2583       F  0.86743567  0.35721581  0.22053321    -0.22900
F2584       F  0.88753554  0.40488903  0.23231363    -0.20300
F2585       F  0.92270927  0.36869621  0.21761970    -0.19900
F2586       F  0.88805697  0.47341537  0.13944109    -0.20000
F2587       F  0.83313295  0.45959865  0.14125314    -0.20300
F2588       F  0.87089670  0.42558022  0.12704028    -0.23000
C2589       C  0.64569044  0.41227435  0.16278874    -0.05800
C2590       C  0.67130188  0.39158318  0.17050519     0.00100
C2591       C  0.66726468  0.37886155  0.18954152    -0.08500
C2592       C  0.64090515  0.39155721  0.20126513    -0.05800
C2593       C  0.61629259  0.41337092  0.19374382     0.00100
C2594       C  0.61730568  0.42193080  0.17387848    -0.08400
C2595       C  0.58753343  0.43966527  0.16440023     0.62000
H2596       H  0.64762143  0.41997591  0.14777275     0.12700
H2597       H  0.63918149  0.38437790  0.21638054     0.12700
C2598       C  0.68918517  0.35051862  0.19687327     0.62200
F2599       F  0.59295892  0.44538321  0.14484572    -0.22900
F2600       F  0.58167621  0.46957716  0.17338779    -0.20300
F2601       F  0.55884244  0.42040909  0.16617896    -0.19900
F2602       F  0.72274783  0.35994601  0.19805999    -0.20000
F2603       F  0.68636067  0.32411230  0.18420540    -0.20300
F2604       F  0.67919389  0.33995107  0.21507319    -0.23000
C2605       C  0.89191744  0.07077802  0.18327203    -0.05800
C2606       C  0.90838414  0.09281748  0.19584476     0.00100
C2607       C  0.89826074  0.12646339  0.19609817    -0.08500
C2608       C  0.87086731  0.13656727  0.18410088    -0.05800
C2609       C  0.85402392  0.11412342  0.17189361     0.00100
C2610       C  0.86516654  0.08086742  0.17106891    -0.08400
C2611       C  0.84895033  0.05602018  0.15735632     0.62000
H2612       H  0.90006043  0.04516763  0.18330201     0.12700
H2613       H  0.86227990  0.16202128  0.18414999     0.12700
C2614       C  0.91561962  0.15122628  0.20928016     0.62200
F2615       F  0.86231474  0.02475000  0.16003432    -0.22900
F2616       F  0.85462575  0.06514689  0.13831259    -0.20300
F2617       F  0.81442386  0.05429523  0.16051984    -0.19900
F2618       F  0.94934197  0.15389511  0.20412281    -0.20000
F2619       F  0.91357390  0.14097075  0.22839873    -0.20300
F2620       F  0.90085770  0.18226167  0.20789702    -0.23000
C2621       C  0.63307487  0.12305775  0.20095194    -0.05800
C2622       C  0.62123718  0.09127582  0.19632701     0.00100
C2623       C  0.63522899  0.07416042  0.18030721    -0.08500
C2624       C  0.66169395  0.08867500  0.16995457    -0.05800
C2625       C  0.67442318  0.11980087  0.17487075     0.00100
C2626       C  0.65966656  0.13777196  0.19034830    -0.08400
C2627       C  0.67210803  0.17202217  0.19555618     0.62000
H2628       H  0.62219947  0.13571642  0.21331571     0.12700
H2629       H  0.67300699  0.07564387  0.15783968     0.12700
C2630       C  0.62193621  0.04075856  0.17394268     0.62200
F2631       F  0.65342288  0.18588408  0.21047842    -0.22900
F2632       F  0.66938979  0.19251076  0.17954578    -0.20300
F2633       F  0.70569282  0.17040075  0.20142821    -0.19900
F2634       F  0.58691320  0.04204551  0.17251527    -0.20000
F2635       F  0.63150832  0.01691060  0.18728408    -0.20300
F2636       F  0.63446708  0.03148436  0.15599423    -0.23000
C2637       C  0.58191326  0.15180082  0.66226524    -0.05800
C2638       C  0.61129856  0.16674095  0.66934547     0.00100
C2639       C  0.62808793  0.15360870  0.68581444    -0.08500
C2640       C  0.61378456  0.12608157  0.69518591    -0.05800
C2641       C  0.58453680  0.11032360  0.68784805     0.00100
C2642       C  0.56876985  0.12309034  0.67061160    -0.08400
C2643       C  0.53913597  0.10652587  0.66022688     0.62000
H2644       H  0.57006675  0.16243402  0.64944823     0.12700
H2645       H  0.62613070  0.11602283  0.70798848     0.12700
C2646       C  0.66179377  0.16748073  0.69267241     0.62200
F2647       F  0.53025243  0.12246797  0.64311662    -0.22900
F2648       F  0.51087929  0.10677695  0.67193537    -0.20300
F2649       F  0.54779639  0.07440086  0.65543347    -0.19900
F2650       F  0.65856372  0.20078237  0.69670277    -0.20000
F2651       F  0.68572607  0.16318765  0.67827107    -0.20300
F2652       F  0.67350987  0.15183496  0.70931331    -0.23000
C2653       C  0.61384035  0.37886595  0.69904763    -0.05800
C2654       C  0.58576637  0.39650073  0.69152698     0.00100
C2655       C  0.57099022  0.38591241  0.67347132    -0.08500
C2656       C  0.58468191  0.35810801  0.66417911    -0.05800
C2657       C  0.61273422  0.34101767  0.67157847     0.00100
C2658       C  0.62781137  0.35132746  0.68925745    -0.08400
C2659       C  0.65886390  0.33377972  0.69743839     0.62000
H2660       H  0.62493808  0.38689882  0.71266564     0.12700
H2661       H  0.57392816  0.34949438  0.65058057     0.12700
C2662       C  0.54155049  0.40364531  0.66327653     0.62200
F2663       F  0.67096880  0.34904663  0.71407262    -0.22900
F2664       F  0.68446260  0.33370356  0.68379863    -0.20300
F2665       F  0.65093409  0.30157716  0.70211655    -0.19900
F2666       F  0.55015222  0.43611404  0.65959884    -0.20000
F2667       F  0.51280033  0.40246272  0.67459125    -0.20300
F2668       F  0.53324500  0.38934671  0.64560484    -0.23000
C2669       C  0.88007656  0.14894666  0.67657660    -0.05800
C2670       C  0.90563574  0.16930283  0.66923004     0.00100
C2671       C  0.93994907  0.16356901  0.67435490    -0.08500
C2672       C  0.94779188  0.13607221  0.68587367    -0.05800
C2673       C  0.92254016  0.11466473  0.69254912     0.00100
C2674       C  0.88793857  0.12164002  0.68846892    -0.08400
C2675       C  0.85968307  0.09992828  0.69602612     0.62000
H2676       H  0.85400181  0.15431446  0.67255270     0.12700
H2677       H  0.97402222  0.13072384  0.68955065     0.12700
C2678       C  0.96815046  0.18618687  0.66753673     0.62200
F2679       F  0.82814254  0.11008387  0.68925430    -0.22900
F2680       F  0.85924694  0.10127050  0.71609741    -0.20300
F2681       F  0.86478203  0.06762883  0.69012354    -0.19900
F2682       F  0.96360223  0.21728670  0.67539450    -0.20000
F2683       F  0.96783353  0.18850135  0.64750353    -0.20300
F2684       F  0.50271764  0.17792461  0.68238418    -0.23000
C2685       C  0.88427636  0.35879098  0.67854795    -0.05800
C2686       C  0.91038953  0.33856690  0.67143442     0.00100
C2687       C  0.94430377  0.34393728  0.67736743    -0.08500
C2688       C  0.95111572  0.37066242  0.68972938    -0.05800
C2689       C  0.92529604  0.39209301  0.69615045     0.00100
C2690       C  0.89115471  0.38582114  0.69081240    -0.08400
C2691       C  0.86247620  0.40854860  0.69696161     0.62000
H2692       H  0.85856593  0.35392717  0.67372345     0.12700
H2693       H  0.97707603  0.37575540  0.69399500     0.12700
C2694       C  0.97316694  0.32201418  0.67030359     0.62200
F2695       F  0.83141220  0.39814599  0.68977870    -0.22900
F2696       F  0.86824397  0.44009699  0.69007306    -0.20300
F2697       F  0.86051997  0.40924734  0.71699557    -0.19900
F2698       F  0.47170133  0.32165709  0.65343181    -0.20000
F2699       F  0.96784946  0.28987253  0.67623767    -0.20300
F2700       F  0.50014409  0.33268218  0.68088633    -0.23000
C2701       C  0.81383754  0.12832071  0.56654603    -0.05800
C2702       C  0.83266966  0.11813838  0.55026107     0.00100
C2703       C  0.86192663  0.13646098  0.54499374    -0.08500
C2704       C  0.87205589  0.16299119  0.55701600    -0.05800
C2705       C  0.85387020  0.17164093  0.57374303     0.00100
C2706       C  0.82389615  0.15453034  0.57842440    -0.08400
C2707       C  0.80264029  0.16352534  0.59606148     0.62000
H2708       H  0.79114554  0.11501142  0.57038931     0.12700
H2709       H  0.89465416  0.17693268  0.55369842     0.12700
C2710       C  0.88232017  0.12860282  0.52692314     0.62200
F2711       F  0.77232226  0.14640678  0.59643345    -0.22900
F2712       F  0.79502788  0.19689853  0.59583149    -0.20300
F2713       F  0.82024536  0.15596601  0.61291427    -0.19900
F2714       F  0.86147586  0.13056612  0.51070842    -0.20000
F2715       F  0.89620455  0.09724624  0.52832810    -0.20300
F2716       F  0.90874244  0.15053897  0.52436078    -0.23000
C2717       C  0.82032577  0.38921731  0.56909893    -0.05800
C2718       C  0.83967702  0.40019010  0.55319571     0.00100
C2719       C  0.87003921  0.38283189  0.54850615    -0.08500
C2720       C  0.87991917  0.35563407  0.56012691    -0.05800
C2721       C  0.86063462  0.34557692  0.57607957     0.00100
C2722       C  0.83028634  0.36240945  0.58067090    -0.08400
C2723       C  0.80865147  0.35239003  0.59792841     0.62000
H2724       H  0.79712048  0.40210173  0.57275513     0.12700
H2725       H  0.90298203  0.34202752  0.55699650     0.12700
C2726       C  0.89188268  0.39247288  0.53142531     0.62200
F2727       F  0.77820331  0.36960340  0.59842966    -0.22900
F2728       F  0.82590476  0.35876833  0.61505191    -0.20300
F2729       F  0.80128625  0.31907792  0.59697830    -0.19900
F2730       F  0.90341090  0.42442413  0.53382464    -0.20000
F2731       F  0.87300261  0.39017667  0.51450227    -0.20300
F2732       F  0.91993737  0.37199713  0.52954579    -0.23000
C2733       C  0.69212201  0.13756564  0.55500857    -0.05800
C2734       C  0.66719859  0.11384220  0.55112557     0.00100
C2735       C  0.63332703  0.11961525  0.55710215    -0.08500
C2736       C  0.62629681  0.14802168  0.56827205    -0.05800
C2737       C  0.65187291  0.17063766  0.57313384     0.00100
C2738       C  0.68503437  0.16614362  0.56577742    -0.08400
C2739       C  0.71311557  0.19085618  0.56974460     0.62000
H2740       H  0.71768949  0.13298674  0.54993700     0.12700
H2741       H  0.60109864  0.15218567  0.57399766     0.12700
C2742       C  0.60521338  0.09533117  0.55250065     0.62200
F2743       F  0.74386579  0.18052344  0.56219491    -0.22900
F2744       F  0.71727541  0.19533735  0.58952560    -0.20300
F2745       F  0.70497247  0.22071165  0.56120067    -0.19900
F2746       F  0.61343511  0.06453013  0.55989837    -0.20000
F2747       F  0.60092794  0.09306629  0.53259389    -0.20300
F2748       F  0.57453493  0.10509833  0.56042085    -0.23000
C2749       C  0.63422985  0.36298459  0.57081220    -0.05800
C2750       C  0.65955083  0.34012358  0.57598451     0.00100
C2751       C  0.69293718  0.34373329  0.56890477    -0.08500
C2752       C  0.70013261  0.37111225  0.55720939    -0.05800
C2753       C  0.67514449  0.39467481  0.55258133     0.00100
C2754       C  0.64153591  0.39062565  0.55926613    -0.08400
C2755       C  0.61416897  0.41633231  0.55530174     0.62000
H2756       H  0.60896570  0.35956011  0.57654740     0.12700
H2757       H  0.72571923  0.37494049  0.55203176     0.12700
C2758       C  0.72102562  0.31949191  0.57426906     0.62200
F2759       F  0.58412049  0.40884466  0.56457680    -0.22900
F2760       F  0.60758278  0.41802397  0.53557623    -0.20300
F2761       F  0.62480918  0.44688519  0.56189148    -0.19900
F2762       F  0.71276262  0.28827579  0.56779109    -0.20000
F2763       F  0.72530207  0.31873668  0.59421518    -0.20300
F2764       F  0.75168660  0.32801044  0.56599845    -0.23000
C2765       C  0.64139552  0.14832490  0.31876656    -0.05800
C2766       C  0.61750510  0.16168160  0.33174283     0.00100
C2767       C  0.58609700  0.14546140  0.33429299    -0.08500
C2768       C  0.57917938  0.11706583  0.32323069    -0.05800
C2769       C  0.60234482  0.10429772  0.30970537     0.00100
C2770       C  0.63422222  0.11981422  0.30756813    -0.08400
C2771       C  0.65989921  0.10685914  0.29311621     0.62000
H2772       H  0.66563386  0.16055058  0.31743407     0.12700
H2773       H  0.55470514  0.10521649  0.32445319     0.12700
C2774       C  0.55962268  0.15850289  0.34838297     0.62200
F2775       F  0.68930931  0.12539502  0.29321535    -0.22900
F2776       F  0.64621970  0.10777321  0.27456110    -0.20300
F2777       F  0.66844762  0.07462801  0.29776418    -0.19900
F2778       F  0.53068551  0.13928066  0.34840597    -0.20000
F2779       F  0.55017665  0.19025952  0.34324904    -0.20300
F2780       F  0.57269352  0.15873295  0.36705755    -0.23000
C2781       C  0.62378231  0.37495374  0.30330515    -0.05800
C2782       C  0.59662894  0.39545551  0.30878219     0.00100
C2783       C  0.57833269  0.38812208  0.32584319    -0.08500
C2784       C  0.58655214  0.35930269  0.33631999    -0.05800
C2785       C  0.61305562  0.33814004  0.33059705     0.00100
C2786       C  0.63279943  0.34658805  0.31419004    -0.08400
C2787       C  0.66337723  0.32599620  0.30833003     0.62000
H2788       H  0.63711385  0.38068176  0.29002906     0.12700
H2789       H  0.57266628  0.35325236  0.34936012     0.12700
C2790       C  0.55097144  0.41145092  0.33322762     0.62200
F2791       F  0.68152042  0.34092565  0.29363451    -0.22900
F2792       F  0.65300138  0.29543835  0.30174566    -0.20300
F2793       F  0.68496091  0.32177951  0.32407614    -0.19900
F2794       F  0.52460810  0.41367444  0.31997985    -0.20000
F2795       F  0.56467050  0.44250839  0.33590073    -0.20300
F2796       F  0.53777291  0.40104774  0.35076520    -0.23000
C2797       C  0.67810358  0.16910105  0.43999216    -0.05800
C2798       C  0.64847540  0.16652573  0.42873439     0.00100
C2799       C  0.62655184  0.13922660  0.43126849    -0.08500
C2800       C  0.63690095  0.11370304  0.44381388    -0.05800
C2801       C  0.66787472  0.11522635  0.45380994     0.00100
C2802       C  0.68811050  0.14386188  0.45271827    -0.08400
C2803       C  0.72025164  0.14757871  0.46479347     0.62000
H2804       H  0.69410566  0.19051473  0.43808576     0.12700
H2805       H  0.62193261  0.09140878  0.44487524     0.12700
C2806       C  0.59346527  0.13575775  0.42006354     0.62200
F2807       F  0.73304401  0.17930932  0.46373941    -0.22900
F2808       F  0.74492349  0.12600949  0.45827389    -0.20300
F2809       F  0.71339251  0.14082244  0.48406399    -0.19900
F2810       F  0.59992775  0.12416416  0.40157226    -0.20000
F2811       F  0.57676968  0.16582689  0.41883510    -0.20300
F2812       F  0.57198699  0.11370733  0.42911644    -0.23000
C2813       C  0.62762234  0.35945831  0.43333180    -0.05800
C2814       C  0.65309290  0.33678457  0.42822606     0.00100
C2815       C  0.68644490  0.34099073  0.43552322    -0.08500
C2816       C  0.69393868  0.36973526  0.44618704    -0.05800
C2817       C  0.66878428  0.39319423  0.45072020     0.00100
C2818       C  0.63475911  0.38739572  0.44488326    -0.08400
C2819       C  0.60639958  0.41109844  0.45021598     0.62000
H2820       H  0.60220784  0.35541168  0.42777218     0.12700
H2821       H  0.71972084  0.37426192  0.45101787     0.12700
C2822       C  0.71391048  0.31526573  0.43197153     0.62200
F2823       F  0.57550320  0.40139868  0.44246747    -0.22900
F2824       F  0.61350919  0.44234643  0.44329361    -0.20300
F2825       F  0.60323694  0.41223543  0.47019450    -0.19900
F2826       F  0.71779166  0.31007966  0.41225758    -0.20000
F2827       F  0.70503711  0.28585009  0.44068308    -0.20300
F2828       F  0.74486767  0.32479770  0.43969198    -0.23000
C2829       C  0.90218292  0.11284165  0.31588045    -0.05800
C2830       C  0.93663831  0.11242634  0.31075459     0.00100
C2831       C  0.95812100  0.13805938  0.31805731    -0.08500
C2832       C  0.94369044  0.16426369  0.32849025    -0.05800
C2833       C  0.90934173  0.16509303  0.33315663     0.00100
C2834       C  0.88821714  0.13844892  0.32736072    -0.08400
C2835       C  0.85109211  0.13560643  0.33276086     0.62000
H2836       H  0.88585539  0.09320724  0.31071873     0.12700
H2837       H  0.95949712  0.18434759  0.33359222     0.12700
C2838       C  0.99649193  0.13803105  0.31561955     0.62200
F2839       F  0.83159834  0.13456759  0.31599553    -0.22900
F2840       F  0.83951970  0.16152282  0.34401927    -0.20300
F2841       F  0.84642141  0.10662823  0.34301969    -0.19900
F2842       F  0.00480986  0.14821211  0.29709060    -0.20000
F2843       F  0.00938849  0.10674984  0.31910064    -0.20300
F2844       F  0.01214490  0.15930426  0.32856998    -0.23000
C2845       C  0.88469114  0.36203257  0.32143958    -0.05800
C2846       C  0.90758314  0.33679775  0.32693212     0.00100
C2847       C  0.94184686  0.33890496  0.32107235    -0.08500
C2848       C  0.95170078  0.36582675  0.30957976    -0.05800
C2849       C  0.92915142  0.39153820  0.30417848     0.00100
C2850       C  0.89492111  0.38964228  0.31032110    -0.08400
C2851       C  0.86932249  0.41640910  0.30529376     0.62000
H2852       H  0.85884475  0.36039327  0.32657752     0.12700
H2853       H  0.97767367  0.36677890  0.30467295     0.12700
C2854       C  0.96828225  0.31319204  0.32711476     0.62200
F2855       F  0.83734312  0.40921208  0.31227103    -0.22900
F2856       F  0.86685872  0.41979882  0.28533936    -0.20300
F2857       F  0.87947499  0.44597639  0.31347532    -0.19900
F2858       F  0.96210476  0.28376746  0.31760929    -0.20000
F2859       F  0.96728657  0.30797017  0.34695494    -0.20300
F2860       F  0.00089205  0.32297623  0.32256217    -0.23000
C2861       C  0.85474414  0.13600902  0.45553062    -0.05800
C2862       C  0.83194744  0.11449054  0.44608765     0.00100
C2863       C  0.82226927  0.12158781  0.42649387    -0.08500
C2864       C  0.83455886  0.15032516  0.41769913    -0.05800
C2865       C  0.85784516  0.17123564  0.42687457     0.00100
C2866       C  0.86859638  0.16387708  0.44613046    -0.08400
C2867       C  0.89457334  0.18396106  0.45736118     0.62000
H2868       H  0.86238543  0.13070287  0.47036082     0.12700
H2869       H  0.82660836  0.15653770  0.40304284     0.12700
C2870       C  0.80009093  0.09888328  0.41422784     0.62200
F2871       F  0.91947808  0.16311501  0.46470081    -0.22900
F2872       F  0.87869251  0.19962184  0.47270065    -0.20300
F2873       F  0.91039847  0.20752486  0.44615834    -0.19900
F2874       F  0.76714768  0.09952013  0.42099922    -0.20000
F2875       F  0.81286118  0.06699588  0.41480786    -0.20300
F2876       F  0.79908199  0.10835383  0.39489072    -0.23000
C2877       C  0.87541178  0.35985515  0.43483937    -0.05800
C2878       C  0.85183491  0.34575536  0.42199915     0.00100
C2879       C  0.81897841  0.35944168  0.42024596    -0.08500
C2880       C  0.81008986  0.38582950  0.43239184    -0.05800
C2881       C  0.83364897  0.40074015  0.44514565     0.00100
C2882       C  0.86735380  0.38803986  0.44599041    -0.08400
C2883       C  0.89524773  0.40482376  0.45755208     0.62000
H2884       H  0.90069333  0.34924940  0.43540826     0.12700
H2885       H  0.78452792  0.39563097  0.43147812     0.12700
C2886       C  0.79390500  0.34706463  0.40504754     0.62200
F2887       F  0.92645075  0.38959270  0.45494377    -0.22900
F2888       F  0.88792066  0.40379648  0.47710847    -0.20300
F2889       F  0.89812561  0.43731585  0.45160738    -0.19900
F2890       F  0.78828487  0.31369020  0.40754139    -0.20000
F2891       F  0.80682719  0.35224841  0.38668959    -0.20300
F2892       F  0.76296764  0.36335494  0.40611012    -0.23000
N2893       N  0.88313507  0.80507241  0.37771064    -0.36600
N2894       N  0.87219276  0.75642782  0.40834101    -0.57200
N2895       N  0.88209161  0.70483436  0.37946402    -0.36600
N2896       N  0.89556987  0.75334503  0.34953108    -0.57200
C2897       C  0.88240768  0.82430978  0.39376675     0.26900
C2898       C  0.89758902  0.82298318  0.36340301     0.26900
C2899       C  0.88320570  0.68743058  0.39625066     0.26900
C2900       C  0.89477929  0.68507917  0.36536768     0.26900
C2901       C  0.85988315  0.78355110  0.41729510     0.35600
C2902       C  0.86070318  0.73029219  0.41847981     0.35600
C2903       C  0.89724395  0.77981809  0.33751564     0.35600
C2904       C  0.89505281  0.72591641  0.33823998     0.35600
C2905       C  0.89634865  0.85483567  0.38964518    -0.21900
C2906       C  0.90621439  0.85391106  0.37056336    -0.21900
C2907       C  0.89662529  0.65629017  0.39280046    -0.21900
C2908       C  0.90404922  0.65481966  0.37335949    -0.21900
C2909       C  0.84138067  0.77467224  0.43353003    -0.23000
C2910       C  0.84153611  0.74079090  0.43413157    -0.23000
C2911       C  0.89776374  0.76911625  0.31839371    -0.23000
C2912       C  0.89655024  0.73502527  0.31885710    -0.23000
C2913       C  0.86623421  0.81621644  0.41135808    -0.18300
C2914       C  0.90123461  0.81313554  0.34375071    -0.18300
C2915       C  0.89664171  0.69288351  0.34531354    -0.18300
C2916       C  0.86823521  0.69716597  0.41397553    -0.18300
H2917       H  0.89870092  0.87584251  0.39926853     0.14600
H2918       H  0.91776476  0.87408714  0.36275599     0.14600
H2919       H  0.89986527  0.63638581  0.40315793     0.14600
H2920       H  0.91440276  0.63353442  0.36590180     0.14600
H2921       H  0.82878292  0.79089370  0.44373314     0.12900
H2922       H  0.82916177  0.72564451  0.44489539     0.12900
H2923       H  0.89981300  0.78425619  0.30550570     0.12900
H2924       H  0.89742676  0.71876461  0.30638647     0.12900
H2925       H  0.87042849  0.78283807  0.37606073     0.26100
H2926       H  0.86924084  0.72701944  0.37728838     0.26100
N2927       N  0.63065479  0.80244058  0.37942805    -0.36600
N2928       N  0.62460750  0.75117980  0.34997368    -0.57200
N2929       N  0.62827030  0.70271068  0.38113170    -0.36600
N2930       N  0.63527838  0.75353401  0.40990361    -0.57200
C2931       C  0.63460897  0.82007561  0.36290984     0.26900
C2932       C  0.64309795  0.82088681  0.39426077     0.26900
C2933       C  0.63427468  0.68419549  0.36516702     0.26900
C2934       C  0.64002759  0.68542792  0.39661167     0.26900
C2935       C  0.61468713  0.77776339  0.33934225     0.35600
C2936       C  0.61430031  0.72382228  0.34025774     0.35600
C2937       C  0.63347156  0.78091881  0.42096249     0.35600
C2938       C  0.63047802  0.72768215  0.42187281     0.35600
C2939       C  0.64956182  0.85012279  0.36729355    -0.21900
C2940       C  0.65510311  0.85055844  0.38703999    -0.21900
C2941       C  0.65058781  0.65509646  0.37048463    -0.21900
C2942       C  0.65428260  0.65589704  0.39036759    -0.21900
C2943       C  0.59819439  0.76720129  0.32262047    -0.23000
C2944       C  0.59809815  0.73301788  0.32315672    -0.23000
C2945       C  0.62716266  0.77255918  0.44012050    -0.23000
C2946       C  0.62510617  0.73866340  0.44068822    -0.23000
C2947       C  0.62196561  0.81114147  0.34432873    -0.18300
C2948       C  0.64177285  0.81266201  0.41426146    -0.18300
C2949       C  0.63554155  0.69456658  0.41626713    -0.18300
C2950       C  0.62085838  0.69089054  0.34651582    -0.18300
H2951       H  0.65540214  0.86991349  0.35731434     0.14600
H2952       H  0.66603767  0.87077745  0.39519621     0.14600
H2953       H  0.65781520  0.63485166  0.36108012     0.14600
H2954       H  0.66530106  0.63650735  0.39925083     0.14600
H2955       H  0.58765815  0.78251661  0.31116699     0.12900
H2956       H  0.58737410  0.71682297  0.31224495     0.12900
H2957       H  0.62551287  0.78906005  0.45245642     0.12900
H2958       H  0.62154140  0.72378776  0.45356563     0.12900
H2959       H  0.61649111  0.78100168  0.38070036     0.26100
H2960       H  0.61257725  0.72346109  0.38166983     0.26100
N2961       N  0.81623416  0.96796713  0.47687664    -0.06200
N2962       N  0.83715420  0.94303620  0.47316933    -0.58300
N2963       N  0.78601666  0.54457947  0.46421745    -0.05800
N2964       N  0.78758315  0.56890265  0.45169202    -0.60400
N2965       N  0.81168205  0.54567681  0.47648286    -0.05400
N2966       N  0.83134836  0.57113063  0.47231043    -0.58300
N2967       N  0.79130888  0.96837792  0.46409554    -0.05100
N2968       N  0.79468632  0.94419513  0.45154754    -0.60800
C2969       C  0.82328766  0.92839730  0.45723340     0.96000
C2970       C  0.81590451  0.58532006  0.45662222     0.95800
N2971       N  0.68397777  0.54215120  0.47921405    -0.06300
N2972       N  0.66380212  0.56825503  0.47781956    -0.58900
N2973       N  0.71254388  0.96576042  0.46545004    -0.04500
N2974       N  0.70967560  0.94024734  0.45367652    -0.60100
N2975       N  0.68895381  0.96499017  0.47885963    -0.06400
N2976       N  0.66933165  0.93891540  0.47638545    -0.59100
N2977       N  0.70741995  0.54295442  0.46574324    -0.04100
N2978       N  0.70387675  0.56954741  0.45490646    -0.60200
Mn2979     Mn  0.74800393  0.50595102  0.46419841     1.18400
C2980       C  0.67686294  0.58512949  0.46268954     0.98100
C2981       C  0.68257046  0.92384406  0.46056494     0.98800
N2982       N  0.81513606  0.54617853  0.52260843    -0.06400
N2983       N  0.83527305  0.57181325  0.52575764    -0.62700
N2984       N  0.79421025  0.96913938  0.53663217    -0.05200
N2985       N  0.79794455  0.94479441  0.54909731    -0.63400
N2986       N  0.81804086  0.96813458  0.52337355    -0.05900
N2987       N  0.83859679  0.94261633  0.52680124    -0.63000
N2988       N  0.79140234  0.54526271  0.53591497    -0.04800
N2989       N  0.79488784  0.56986703  0.54823065    -0.63700
Mn2990     Mn  0.81634432  0.50745452  0.49952027     1.10700
C2991       C  0.82228523  0.58651728  0.54188160     0.99300
C2992       C  0.82566207  0.92816344  0.54302321     0.99400
N2993       N  0.69106176  0.96538142  0.52465142    -0.05900
N2994       N  0.67219288  0.93906827  0.52793959    -0.61300
N2995       N  0.71247880  0.54284053  0.53697013    -0.05200
N2996       N  0.71020850  0.56864360  0.54846268    -0.58000
N2997       N  0.68720284  0.54243023  0.52441925    -0.06500
N2998       N  0.66710718  0.56835685  0.52715583    -0.60800
N2999       N  0.71593976  0.96696746  0.53743241    -0.05500
N3000       N  0.71482325  0.94193544  0.54955654    -0.58000
Mn3001     Mn  0.68546423  0.50376689  0.50167272     1.20200
Mn3002     Mn  0.75321993  0.50635119  0.53704711     1.10100
Cl3003     Cl  0.75085055  0.50574797  0.50060653    -0.86000
C3004       C  0.68743297  0.92487311  0.54358552     0.96300
C3005       C  0.68182800  0.58430159  0.54234137     0.96100
N3006       N  0.89092263  0.80516872  0.62336062    -0.36600
N3007       N  0.87756598  0.75655477  0.59314455    -0.57200
N3008       N  0.88923615  0.70577186  0.62211224    -0.36600
N3009       N  0.90362642  0.75424808  0.65170387    -0.57200
C3010       C  0.89049820  0.82426712  0.60725590     0.26900
C3011       C  0.90554356  0.82291254  0.63780309     0.26900
C3012       C  0.88908958  0.68793983  0.60551410     0.26900
C3013       C  0.90330987  0.68664253  0.63613942     0.26900
C3014       C  0.86525036  0.78389183  0.58422933     0.35600
C3015       C  0.86450829  0.73031138  0.58356413     0.35600
C3016       C  0.90256650  0.78052549  0.66368961     0.35600
C3017       C  0.90096727  0.72727113  0.66300895     0.35600
C3018       C  0.90520635  0.85450480  0.61144037    -0.21900
C3019       C  0.91478360  0.85362489  0.63072227    -0.21900
C3020       C  0.90356484  0.65716755  0.60894973    -0.21900
C3021       C  0.91259841  0.65635639  0.62831137    -0.21900
C3022       C  0.84493573  0.77499677  0.56857573    -0.23000
C3023       C  0.84444733  0.74096643  0.56816565    -0.23000
C3024       C  0.89934533  0.77027945  0.68279487    -0.23000
C3025       C  0.89828687  0.73634688  0.68236121    -0.23000
C3026       C  0.87297527  0.81666271  0.58983523    -0.18300
C3027       C  0.90759144  0.81325688  0.65756176    -0.18300
C3028       C  0.90477804  0.69478509  0.65610839    -0.18300
C3029       C  0.87140872  0.69697260  0.58839031    -0.18300
H3030       H  0.90760198  0.87544793  0.60178934     0.14600
H3031       H  0.92617199  0.87372549  0.63877569     0.14600
H3032       H  0.90601207  0.63695114  0.59875337     0.14600
H3033       H  0.92364193  0.63545331  0.63590383     0.14600
H3034       H  0.83168479  0.79130573  0.55860033     0.12900
H3035       H  0.83078139  0.72582780  0.55781699     0.12900
H3036       H  0.89871577  0.78559713  0.69567726     0.12900
H3037       H  0.89679777  0.72019517  0.69484878     0.12900
H3038       H  0.87734421  0.78346151  0.62506800     0.26100
H3039       H  0.87560860  0.72747247  0.62439332     0.26100
N3040       N  0.64633735  0.80360490  0.62654805    -0.36600
N3041       N  0.63791155  0.75338968  0.65613771    -0.57200
N3042       N  0.64329082  0.70477106  0.62489709    -0.36600
N3043       N  0.65228596  0.75505613  0.59630730    -0.57200
C3044       C  0.64927360  0.82129841  0.64309226     0.26900
C3045       C  0.65894454  0.82217623  0.61200794     0.26900
C3046       C  0.64597297  0.68596597  0.64102625     0.26900
C3047       C  0.65522879  0.68669673  0.60986118     0.26900
C3048       C  0.62513049  0.78010461  0.66538132     0.35600
C3049       C  0.62371050  0.72669192  0.66448768     0.35600
C3050       C  0.64949917  0.78231259  0.58525321     0.35600
C3051       C  0.64788684  0.72910824  0.58436566     0.35600
C3052       C  0.66406817  0.85149428  0.63910056    -0.21900
C3053       C  0.67046568  0.85195318  0.61946071    -0.21900
C3054       C  0.65997441  0.65554419  0.63628320    -0.21900
C3055       C  0.66602947  0.65606401  0.61658372    -0.21900
C3056       C  0.60331999  0.77037033  0.67998223    -0.23000
C3057       C  0.60235934  0.73638529  0.67938803    -0.23000
C3058       C  0.64312632  0.77376218  0.56607119    -0.23000
C3059       C  0.64209868  0.73981763  0.56550749    -0.23000
C3060       C  0.63342580  0.81301852  0.66071727    -0.18300
C3061       C  0.65701908  0.81418475  0.59203618    -0.18300
C3062       C  0.65360091  0.69626033  0.59009598    -0.18300
C3063       C  0.63075467  0.69379771  0.65896426    -0.18300
H3064       H  0.66845031  0.87159518  0.64916029     0.14600
H3065       H  0.68103372  0.87243048  0.61146058     0.14600
H3066       H  0.66414483  0.63475222  0.64590563     0.14600
H3067       H  0.67606778  0.63579651  0.60808013     0.14600
H3068       H  0.58936938  0.78610159  0.68986540     0.12900
H3069       H  0.58757779  0.72063197  0.68875389     0.12900
H3070       H  0.64079995  0.79018293  0.55372426     0.12900
H3071       H  0.63885413  0.72475014  0.55264567     0.12900
H3072       H  0.63159115  0.78258486  0.62488296     0.26100
H3073       H  0.62919037  0.72649047  0.62383429     0.26100
N3074       N  0.97542064  0.94050411  0.27142879    -0.06200
N3075       N  0.97165532  0.91443292  0.28246700    -0.58300
N3076       N  0.94631062  0.97002120  0.23067384    -0.05800
N3077       N  0.92107276  0.96721767  0.21809924    -0.60400
N3078       N  0.97001668  0.94767396  0.22731658    -0.05400
N3079       N  0.96047123  0.92844762  0.21264376    -0.58300
N3080       N  0.95220788  0.96309612  0.27517582    -0.05100
N3081       N  0.93134188  0.95165207  0.28877718    -0.60800
C3082       C  0.94432174  0.92114848  0.29334679     0.96000
C3083       C  0.93007719  0.94140816  0.20684591     0.95800
N3084       N  0.97278248  0.56611681  0.23002829    -0.06300
N3085       N  0.96337560  0.58842423  0.21688590    -0.58900
N3086       N  0.95394047  0.54502424  0.27673431    -0.04500
N3087       N  0.93327236  0.55671628  0.29050656    -0.60100
N3088       N  0.97839487  0.56648619  0.27390728    -0.06400
N3089       N  0.97559762  0.59165652  0.28568686    -0.59100
N3090       N  0.94823218  0.54462131  0.23252960    -0.04100
N3091       N  0.92248058  0.55102941  0.22089947    -0.60200
Mn3092     Mn  0.94927393  0.00636079  0.25448619     1.18400
C3093       C  0.93194096  0.57831714  0.21126090     0.98100
C3094       C  0.94805764  0.58575166  0.29632508     0.98800
N3095       N  0.55434381  0.94356822  0.22637823    -0.06400
N3096       N  0.56276830  0.92278719  0.21220859    -0.62700
N3097       N  0.57698175  0.95929100  0.27361336    -0.05200
N3098       N  0.59840238  0.94866032  0.28732294    -0.63400
N3099       N  0.55311643  0.93709908  0.27071290    -0.05900
N3100       N  0.55720090  0.91175410  0.28248551    -0.63000
N3101       N  0.57904203  0.96492757  0.22915593    -0.04800
N3102       N  0.60388757  0.95981455  0.21677489    -0.63700
Mn3103     Mn  0.51286578  0.94124318  0.24853931     1.10700
C3104       C  0.59350681  0.93383098  0.20611724     0.99300
C3105       C  0.58518432  0.91911485  0.29288135     0.99400
N3106       N  0.55772972  0.56597991  0.27231547    -0.05900
N3107       N  0.56259752  0.59095101  0.28418347    -0.61300
N3108       N  0.58269129  0.53860237  0.23091068    -0.05200
N3109       N  0.60823558  0.54314064  0.21905862    -0.58000
N3110       N  0.55923547  0.56150273  0.22833648    -0.06500
N3111       N  0.56915074  0.58283466  0.21493106    -0.60800
N3112       N  0.58028309  0.54234608  0.27528910    -0.05500
N3113       N  0.60185680  0.55178174  0.28922902    -0.58000
Mn3114     Mn  0.51823215  0.56529446  0.25003560     1.20200
Mn3115     Mn  0.57970283  0.00174796  0.25268693     1.10100
Cl3116     Cl  0.51452252  0.00368197  0.25177181    -0.86000
C3117       C  0.58991069  0.58215062  0.29472462     0.96300
C3118       C  0.59940614  0.57033708  0.20897086     0.96100
N3119       N  0.97220239  0.66314621  0.97623441    -0.06200
N3120       N  0.94462152  0.64472211  0.97441313    -0.58300
N3121       N  0.54889748  0.67931134  0.96319106    -0.05800
N3122       N  0.57494428  0.67637364  0.95154168    -0.60400
N3123       N  0.54883695  0.65533740  0.97605178    -0.05400
N3124       N  0.57552183  0.63575193  0.97353914    -0.58300
N3125       N  0.97221416  0.68645790  0.96296811    -0.05100
N3126       N  0.94520877  0.68436041  0.95179463    -0.60800
C3127       C  0.92829491  0.65822876  0.95888745     0.96000
C3128       C  0.59122963  0.64908010  0.95795150     0.95800
N3129       N  0.55282685  0.78043015  0.97655794    -0.06300
N3130       N  0.57727226  0.80154129  0.97216641    -0.58900
N3131       N  0.97177771  0.76328964  0.96230259    -0.04500
N3132       N  0.94723251  0.76715031  0.94949283    -0.60100
N3133       N  0.97173710  0.78761098  0.97495363    -0.06400
N3134       N  0.94677563  0.80864928  0.97070599    -0.59100
N3135       N  0.55173779  0.75678271  0.96347720    -0.04100
N3136       N  0.57499591  0.76135913  0.95012818    -0.60200
Mn3137     Mn  0.51188294  0.71935971  0.96297325     1.18400
C3138       C  0.59116049  0.78915730  0.95557596     0.98100
C3139       C  0.93157525  0.79539615  0.95465488     0.98800
N3140       N  0.54859439  0.65247648  0.02167114    -0.06400
N3141       N  0.57215176  0.62963846  0.02486216    -0.62700
N3142       N  0.97698801  0.68734826  0.03489284    -0.05200
N3143       N  0.95241828  0.68394294  0.04757347    -0.63400
N3144       N  0.97584583  0.66359422  0.02185639    -0.05900
N3145       N  0.95045698  0.64335249  0.02546272    -0.63000
N3146       N  0.54951648  0.67526112  0.03530335    -0.04800
N3147       N  0.57351725  0.66826978  0.04813017    -0.63700
Mn3148     Mn  0.50944332  0.65447591  0.99873074     1.10700
C3149       C  0.58722248  0.63972843  0.04153690     0.99300
C3150       C  0.93635444  0.65635704  0.04163290     0.99400
N3151       N  0.97501356  0.78808108  0.02152793    -0.05900
N3152       N  0.94922914  0.80818573  0.02534785    -0.61300
N3153       N  0.55267998  0.75336691  0.03583293    -0.05200
N3154       N  0.57845695  0.75520877  0.04804456    -0.58000
N3155       N  0.55363174  0.77766283  0.02314142    -0.06500
N3156       N  0.58038461  0.79650270  0.02666098    -0.60800
N3157       N  0.97698131  0.76469670  0.03475920    -0.05500
N3158       N  0.95284528  0.76837353  0.04770483    -0.58000
Mn3159     Mn  0.51370269  0.78198782  0.00005733     1.20200
Mn3160     Mn  0.51229781  0.71639656  0.03612347     1.10100
Cl3161     Cl  0.51188949  0.71815652  0.99951574    -0.86000
C3162       C  0.93561958  0.79556500  0.04182250     0.96300
C3163       C  0.59591533  0.78191554  0.04218608     0.96100
N3164       N  0.80998715  0.88815322  0.88057645    -0.36600
N3165       N  0.75849807  0.86280179  0.90695144    -0.57200
N3166       N  0.70535847  0.88735553  0.88074508    -0.36600
N3167       N  0.75698775  0.91044027  0.85367297    -0.57200
C3168       C  0.82994182  0.87033932  0.89286630     0.26900
C3169       C  0.82875689  0.89500203  0.86464148     0.26900
C3170       C  0.68643344  0.86876054  0.89292123     0.26900
C3171       C  0.68594954  0.89398954  0.86484053     0.26900
C3172       C  0.78636709  0.85391828  0.91737122     0.35600
C3173       C  0.73123451  0.85311176  0.91733184     0.35600
C3174       C  0.78422139  0.92280308  0.84434268     0.35600
C3175       C  0.72913619  0.92258199  0.84449769     0.35600
C3176       C  0.86195988  0.86670558  0.88478020    -0.21900
C3177       C  0.86106448  0.88183940  0.86697628    -0.21900
C3178       C  0.65441529  0.86436572  0.88481858    -0.21900
C3179       C  0.65423154  0.87994571  0.86711491    -0.21900
C3180       C  0.77670318  0.83805031  0.93427732    -0.23000
C3181       C  0.74191333  0.83758874  0.93427026    -0.23000
C3182       C  0.77362743  0.94292373  0.82915551    -0.23000
C3183       C  0.73873622  0.94280284  0.82925910    -0.23000
C3184       C  0.82044644  0.85720917  0.91121116    -0.18300
C3185       C  0.81842573  0.91418812  0.84839045    -0.18300
C3186       C  0.69527832  0.91348517  0.84860959    -0.18300
C3187       C  0.69687792  0.85551478  0.91116352    -0.18300
H3188       H  0.88391856  0.85430930  0.89091866     0.14600
H3189       H  0.88208517  0.88330820  0.85697979     0.14600
H3190       H  0.63325972  0.85105757  0.89088869     0.14600
H3191       H  0.63295704  0.88098615  0.85710000     0.14600
H3192       H  0.79301803  0.82708556  0.94525354     0.12900
H3193       H  0.72628808  0.82628872  0.94526744     0.12900
H3194       H  0.78939236  0.95586598  0.81887081     0.12900
H3195       H  0.72231457  0.95561164  0.81904794     0.12900
H3196       H  0.78615511  0.89766804  0.88366488     0.26100
H3197       H  0.72891628  0.89739119  0.88385725     0.26100
N3198       N  0.75888020  0.65376140  0.91633330    -0.36600
N3199       N  0.70449562  0.63782896  0.87324517    -0.57200
N3200       N  0.75726113  0.62346836  0.84559559    -0.36600
N3201       N  0.81080263  0.63912309  0.87363829    -0.57200
C3202       C  0.73117267  0.66580327  0.90708888     0.26900
C3203       C  0.78564944  0.66786655  0.90755889     0.26900
C3204       C  0.72932484  0.62363078  0.83388344     0.26900
C3205       C  0.78494647  0.62457392  0.83397586     0.26900
C3206       C  0.68550892  0.64051910  0.88943148     0.35600
C3207       C  0.68441581  0.62550625  0.85922243     0.35600
C3208       C  0.83069647  0.64232673  0.88962673     0.35600
C3209       C  0.83053465  0.62708582  0.85942297     0.35600
C3210       C  0.74024621  0.68908558  0.89335208    -0.21900
C3211       C  0.77480961  0.69040950  0.89366451    -0.21900
C3212       C  0.73945517  0.62535287  0.81466143    -0.21900
C3213       C  0.77443644  0.62582762  0.81471603    -0.21900
C3214       C  0.65260361  0.63043074  0.88561689    -0.23000
C3215       C  0.65191595  0.62081540  0.86640256    -0.23000
C3216       C  0.86355649  0.63241000  0.88556767    -0.23000
C3217       C  0.86348521  0.62279398  0.86634784    -0.23000
C3218       C  0.69940841  0.65071761  0.90744229    -0.18300
C3219       C  0.81808623  0.65391971  0.90758713    -0.18300
C3220       C  0.81940040  0.62150616  0.84012647    -0.18300
C3221       C  0.69507613  0.61977260  0.83995301    -0.18300
H3222       H  0.72366483  0.70157273  0.88308162     0.14600
H3223       H  0.79045477  0.70382610  0.88352565     0.14600
H3224       H  0.72329502  0.62531808  0.80188331     0.14600
H3225       H  0.79038438  0.62621077  0.80198025     0.14600
H3226       H  0.63131679  0.63019127  0.89545097     0.12900
H3227       H  0.62999960  0.61143607  0.85866853     0.12900
H3228       H  0.88535283  0.63260290  0.89520372     0.12900
H3229       H  0.88526708  0.61388872  0.85836733     0.12900
H3230       H  0.75966323  0.63333297  0.92560652     0.26100
H3231       H  0.75760702  0.61881328  0.86045696     0.26100
N3232       N  0.56606573  0.96460324  0.72068935    -0.06200
N3233       N  0.58696097  0.93962933  0.71693003    -0.58300
N3234       N  0.54220355  0.54157566  0.70730217    -0.05800
N3235       N  0.54488400  0.56511008  0.69423624    -0.60400
N3236       N  0.56734034  0.54292265  0.71985929    -0.05400
N3237       N  0.58765743  0.56774614  0.71550470    -0.58300
N3238       N  0.54091676  0.96470559  0.70807048    -0.05100
N3239       N  0.54396687  0.94009005  0.69575186    -0.60800
C3240       C  0.57270687  0.92444314  0.70121805     0.96000
C3241       C  0.57332204  0.58140865  0.69934425     0.95800
N3242       N  0.93976127  0.54087679  0.72169638    -0.06300
N3243       N  0.91899390  0.56608852  0.71829448    -0.58900
N3244       N  0.96724672  0.96802716  0.70975551    -0.04500
N3245       N  0.96438703  0.94277314  0.69788212    -0.60100
N3246       N  0.94343278  0.96750631  0.72298904    -0.06400
N3247       N  0.92350976  0.94161013  0.72026410    -0.59100
N3248       N  0.96347968  0.53959496  0.70844710    -0.04100
N3249       N  0.95945393  0.56344725  0.69571120    -0.60200
Mn3250     Mn  0.50197202  0.00301105  0.70727186     1.18400
C3251       C  0.93158031  0.57970450  0.70187006     0.98100
C3252       C  0.93703205  0.92651986  0.70444890     0.98800
N3253       N  0.57080208  0.54709351  0.76567418    -0.06400
N3254       N  0.59654192  0.56679342  0.76947190    -0.62700
N3255       N  0.54784916  0.97301615  0.78157361    -0.05200
N3256       N  0.55908323  0.95726606  0.79719242    -0.63400
N3257       N  0.57037164  0.97075553  0.76753468    -0.05900
N3258       N  0.59696848  0.95340243  0.77350140    -0.63000
N3259       N  0.54796175  0.54933917  0.77950605    -0.04800
N3260       N  0.55814270  0.57052535  0.79291024    -0.63700
Mn3261     Mn  0.56924763  0.00519088  0.74259050     1.10700
C3262       C  0.58834115  0.58170686  0.78640183     0.99300
C3263       C  0.58955024  0.94453401  0.79193926     0.99400
N3264       N  0.94287608  0.97299264  0.76939260    -0.05900
N3265       N  0.91702888  0.95484670  0.77502086    -0.61300
N3266       N  0.96480637  0.54834152  0.78059518    -0.05200
N3267       N  0.95576079  0.57095748  0.79347634    -0.58000
N3268       N  0.94110249  0.54566635  0.76712205    -0.06500
N3269       N  0.91609037  0.56660526  0.77051185    -0.60800
N3270       N  0.96568722  0.97528236  0.78345397    -0.05500
N3271       N  0.95505998  0.95892699  0.79890256    -0.58000
Mn3272     Mn  0.94167109  0.00774560  0.74480129     1.20200
Mn3273     Mn  0.50642532  0.01046909  0.78084024     1.10100
Cl3274     Cl  0.50438007  0.00625694  0.74396460    -0.86000
C3275       C  0.92487285  0.94569332  0.79337740     0.96300
C3276       C  0.92540144  0.58264172  0.78692442     0.96100
N3277       N  0.76257209  0.62428305  0.09520492    -0.36600
N3278       N  0.81459420  0.63021630  0.12486739    -0.57200
N3279       N  0.76447072  0.63020493  0.15528704    -0.36600
N3280       N  0.71250675  0.62320412  0.12470221    -0.57200
C3281       C  0.79079871  0.61746609  0.08500891     0.26900
C3282       C  0.73596003  0.61200819  0.08509523     0.26900
C3283       C  0.79265692  0.62144248  0.16550070     0.26900
C3284       C  0.73724027  0.61968303  0.16537662     0.26900
C3285       C  0.83313655  0.63725125  0.10900175     0.35600
C3286       C  0.83453284  0.63651568  0.14045802     0.35600
C3287       C  0.69246168  0.62754651  0.10888525     0.35600
C3288       C  0.69359355  0.63138308  0.14023358     0.35600
C3289       C  0.78229369  0.60046211  0.06820376    -0.21900
C3290       C  0.74751735  0.59678960  0.06832114    -0.21900
C3291       C  0.78310892  0.60646201  0.18272855    -0.21900
C3292       C  0.74811873  0.60509388  0.18257185    -0.21900
C3293       C  0.86487027  0.64873908  0.11455247    -0.23000
C3294       C  0.86592603  0.64773146  0.13451284    -0.23000
C3295       C  0.66085569  0.63931436  0.11438680    -0.23000
C3296       C  0.66139981  0.64118335  0.13431373    -0.23000
C3297       C  0.82330614  0.62925983  0.08977474    -0.18300
C3298       C  0.70159587  0.61738994  0.08995357    -0.18300
C3299       C  0.70293200  0.62373940  0.15949529    -0.18300
C3300       C  0.82662749  0.62651082  0.15949285    -0.18300
H3301       H  0.79929735  0.59225636  0.05687836     0.14600
H3302       H  0.73240676  0.58513954  0.05709310     0.14600
H3303       H  0.79963999  0.59691501  0.19405102     0.14600
H3304       H  0.73248883  0.59448673  0.19380400     0.14600
H3305       H  0.88570433  0.65545857  0.10521241     0.12900
H3306       H  0.88764340  0.65347375  0.14358365     0.12900
H3307       H  0.63925820  0.64479264  0.10512548     0.12900
H3308       H  0.64021763  0.64783449  0.14347747     0.12900
H3309       H  0.76131846  0.64059077  0.10688123     0.26100
H3310       H  0.76358152  0.64424490  0.14261958     0.26100
N3311       N  0.76286186  0.88417948  0.15072477    -0.36600
N3312       N  0.81545050  0.86686744  0.12275598    -0.57200
N3313       N  0.76362604  0.84554953  0.09525473    -0.36600
N3314       N  0.71065290  0.86513503  0.12236936    -0.57200
C3315       C  0.79013221  0.90007402  0.15841436     0.26900
C3316       C  0.73445132  0.89740649  0.15872989     0.26900
C3317       C  0.79153869  0.84199161  0.08407730     0.26900
C3318       C  0.73607180  0.84202101  0.08359685     0.26900
C3319       C  0.83507738  0.87334751  0.13847405     0.35600
C3320       C  0.83576193  0.85185443  0.10964479     0.35600
C3321       C  0.69129565  0.86838782  0.13844674     0.35600
C3322       C  0.69150337  0.84912731  0.10896204     0.35600
C3323       C  0.77887394  0.92354506  0.17158274    -0.21900
C3324       C  0.74381223  0.92204517  0.17167249    -0.21900
C3325       C  0.78159788  0.83593111  0.06504184    -0.21900
C3326       C  0.74665205  0.83590983  0.06474340    -0.21900
C3327       C  0.86798188  0.86235917  0.13534084    -0.23000
C3328       C  0.86855141  0.84934188  0.11696732    -0.23000
C3329       C  0.65967615  0.85448124  0.13516958    -0.23000
C3330       C  0.65971931  0.84255565  0.11649350    -0.23000
C3331       C  0.82486573  0.89279144  0.15448944    -0.18300
C3332       C  0.70055719  0.88653811  0.15531806    -0.18300
C3333       C  0.70184901  0.84101503  0.08982371    -0.18300
C3334       C  0.82561896  0.84144121  0.09085219    -0.18300
H3335       H  0.79433182  0.94000388  0.18025987     0.14600
H3336       H  0.72710528  0.93704891  0.18049098     0.14600
H3337       H  0.79780769  0.83119000  0.05271072     0.14600
H3338       H  0.73085783  0.83105885  0.05214843     0.14600
H3339       H  0.88966828  0.86478490  0.14495969     0.12900
H3340       H  0.89067394  0.83926153  0.10980077     0.12900
H3341       H  0.63855293  0.85341125  0.14511074     0.12900
H3342       H  0.63872471  0.83036950  0.10930907     0.12900
H3343       H  0.76366620  0.86311758  0.14208739     0.26100
H3344       H  0.76345062  0.84626514  0.11029112     0.26100
C3345       C  0.64041469  0.56931238  0.80512441    -0.05800
C3346       C  0.61517484  0.59239605  0.80006034     0.00100
C3347       C  0.61565606  0.62425333  0.80839806    -0.08500
C3348       C  0.64322481  0.63294076  0.82045479    -0.05800
C3349       C  0.66869758  0.60990843  0.82543645     0.00100
C3350       C  0.66660438  0.57715186  0.81826897    -0.08400
C3351       C  0.69079940  0.55020243  0.82519567     0.62000
H3352       H  0.63885004  0.54465587  0.79907166     0.12700
H3353       H  0.64456691  0.65747514  0.82667689     0.12700
C3354       C  0.58690128  0.64854759  0.80474865     0.62200
F3355       F  0.68136083  0.51938208  0.81839815    -0.22900
F3356       F  0.69106117  0.54910805  0.84527687    -0.20300
F3357       F  0.72319441  0.55636530  0.81871416    -0.19900
F3358       F  0.55667232  0.63504181  0.81093291    -0.20000
F3359       F  0.58450777  0.65544030  0.78511608    -0.20300
F3360       F  0.59172889  0.67792459  0.81465900    -0.23000
C3361       C  0.86743227  0.63581539  0.81831071    -0.05800
C3362       C  0.84550759  0.61162721  0.82564111     0.00100
C3363       C  0.85043555  0.57812210  0.82046699    -0.08500
C3364       C  0.87702304  0.56992498  0.80785069    -0.05800
C3365       C  0.89897621  0.59394734  0.80056161     0.00100
C3366       C  0.89442664  0.62741079  0.80584972    -0.08400
C3367       C  0.91812837  0.65380735  0.79842767     0.62000
H3368       H  0.86352276  0.66122144  0.82272860     0.12700
H3369       H  0.88114250  0.54444251  0.80361844     0.12700
C3370       C  0.82821738  0.55101704  0.82857604     0.62200
F3371       F  0.90910856  0.68491239  0.80507033    -0.22900
F3372       F  0.91735115  0.65428358  0.77834125    -0.20300
F3373       F  0.95085288  0.64701746  0.80468856    -0.19900
F3374       F  0.79500407  0.55579131  0.82269288    -0.20000
F3375       F  0.82984767  0.55130069  0.84865389    -0.20300
F3376       F  0.83838028  0.52015631  0.82215048    -0.23000
C3377       C  0.66486751  0.90285595  0.81743752    -0.05800
C3378       C  0.66817698  0.92241531  0.83416601     0.00100
C3379       C  0.64545978  0.94910941  0.83715163    -0.08500
C3380       C  0.61985490  0.95526778  0.82316877    -0.05800
C3381       C  0.61647529  0.93569443  0.80636024     0.00100
C3382       C  0.63928614  0.90895608  0.80344664    -0.08400
C3383       C  0.63573174  0.88609716  0.78607584     0.62000
H3384       H  0.68243181  0.88244602  0.81556980     0.12700
H3385       H  0.60249835  0.97580717  0.82515273     0.12700
C3386       C  0.64869578  0.97112818  0.85492982     0.62200
F3387       F  0.65887468  0.86026038  0.78679929    -0.22900
F3388       F  0.64115559  0.90332597  0.76906585    -0.20300
F3389       F  0.60345545  0.87284769  0.78571739    -0.19900
F3390       F  0.62560684  0.99702568  0.85448540    -0.20000
F3391       F  0.68098555  0.98424023  0.85584931    -0.20300
F3392       F  0.64299205  0.95299362  0.87157901    -0.23000
C3393       C  0.84945451  0.90377767  0.81759386    -0.05800
C3394       C  0.84510437  0.92364050  0.83409408     0.00100
C3395       C  0.86709287  0.95061739  0.83732731    -0.08500
C3396       C  0.89331245  0.95655109  0.82394411    -0.05800
C3397       C  0.89786306  0.93660574  0.80741086     0.00100
C3398       C  0.87539813  0.90986598  0.80406919    -0.08400
C3399       C  0.87920251  0.88735226  0.78655870     0.62000
H3400       H  0.83233239  0.88323603  0.81549752     0.12700
H3401       H  0.91017446  0.97725825  0.82615001     0.12700
C3402       C  0.86246599  0.97312552  0.85477371     0.62200
F3403       F  0.85736064  0.86071800  0.78736106    -0.22900
F3404       F  0.91202908  0.87516642  0.78577916    -0.20300
F3405       F  0.87203429  0.90470498  0.76972412    -0.19900
F3406       F  0.86846077  0.95574307  0.87172271    -0.20000
F3407       F  0.82960994  0.98531824  0.85503522    -0.20300
F3408       F  0.88447761  0.99964205  0.85436195    -0.23000
C3409       C  0.67782609  0.63376098  0.05771153    -0.05800
C3410       C  0.67465160  0.61446953  0.07460325     0.00100
C3411       C  0.64437688  0.59613034  0.07732413    -0.08500
C3412       C  0.61598488  0.60373368  0.06562839    -0.05800
C3413       C  0.61853265  0.62548562  0.04988556     0.00100
C3414       C  0.65055222  0.63786367  0.04464044    -0.08400
C3415       C  0.65583250  0.65418310  0.02505297     0.62000
H3416       H  0.70153547  0.64630821  0.05505667     0.12700
H3417       H  0.59159195  0.59293137  0.06896214     0.12700
C3418       C  0.64071658  0.56882023  0.09227882     0.62200
F3419       F  0.68857136  0.66588629  0.02313176    -0.22900
F3420       F  0.63358018  0.68029499  0.02239261    -0.20300
F3421       F  0.65011928  0.63113140  0.01057800    -0.19900
F3422       F  0.61786295  0.57842652  0.10637927    -0.20000
F3423       F  0.67119348  0.56048232  0.10112400    -0.20300
F3424       F  0.62850467  0.54075658  0.08320096    -0.23000
C3425       C  0.87750245  0.66718579  0.05077199    -0.05800
C3426       C  0.90488874  0.64499994  0.05060014     0.00100
C3427       C  0.90333389  0.61517149  0.06120704    -0.08500
C3428       C  0.87498773  0.60969184  0.07301887    -0.05800
C3429       C  0.84857708  0.63296426  0.07413556     0.00100
C3430       C  0.84880483  0.66135774  0.06216254    -0.08400
C3431       C  0.81923112  0.68561088  0.06171679     0.62000
H3432       H  0.87927922  0.68964716  0.04229306     0.12700
H3433       H  0.87387122  0.58800292  0.08219603     0.12700
C3434       C  0.93214743  0.59019087  0.06073469     0.62200
F3435       F  0.82580569  0.71261558  0.05001529    -0.22900
F3436       F  0.81248596  0.69700564  0.08022380    -0.20300
F3437       F  0.79070137  0.67009737  0.05444677    -0.19900
F3438       F  0.96192790  0.60476769  0.06701168    -0.20000
F3439       F  0.93629970  0.57882859  0.04195254    -0.20300
F3440       F  0.92585795  0.56327664  0.07255725    -0.23000
C3441       C  0.63072151  0.83027235  0.05216744    -0.05800
C3442       C  0.62509533  0.79605327  0.05333312     0.00100
C3443       C  0.64680774  0.77653932  0.06547148    -0.08500
C3444       C  0.67167652  0.79240066  0.07679998    -0.05800
C3445       C  0.67604548  0.82662802  0.07628506     0.00100
C3446       C  0.65595152  0.84595910  0.06344546    -0.08400
C3447       C  0.66096123  0.88295881  0.06183619     0.62000
H3448       H  0.61454334  0.84489269  0.04269959     0.12700
H3449       H  0.68782146  0.77819152  0.08652116     0.12700
C3450       C  0.64499291  0.73907020  0.06618500     0.62200
F3451       F  0.63942495  0.89699371  0.04811866    -0.22900
F3452       F  0.69393587  0.88955192  0.05640721    -0.20300
F3453       F  0.65463552  0.89771602  0.07956265    -0.19900
F3454       F  0.64562271  0.72669929  0.04751599    -0.20000
F3455       F  0.61569539  0.72918817  0.07539010    -0.20300
F3456       F  0.67220779  0.72533080  0.07620924    -0.23000
C3457       C  0.88932801  0.78609594  0.06505869    -0.05800
C3458       C  0.90568186  0.80856052  0.05267475     0.00100
C3459       C  0.89477858  0.84211780  0.05252980    -0.08500
C3460       C  0.86786698  0.85165394  0.06481083    -0.05800
C3461       C  0.85247243  0.82916672  0.07745972     0.00100
C3462       C  0.86351771  0.79591995  0.07780284    -0.08400
C3463       C  0.84892357  0.77111449  0.09202311     0.62000
H3464       H  0.89763722  0.76056713  0.06512340     0.12700
H3465       H  0.85898899  0.87701507  0.06500152     0.12700
C3466       C  0.91197541  0.86808514  0.04018520     0.62200
F3467       F  0.86254360  0.73986194  0.08940518    -0.22900
F3468       F  0.81413173  0.76924283  0.08962968    -0.20300
F3469       F  0.85614916  0.78061208  0.11086553    -0.19900
F3470       F  0.90698894  0.86105471  0.02072105    -0.20000
F3471       F  0.94636635  0.86861189  0.04433869    -0.20300
F3472       F  0.89913716  0.89942876  0.04367531    -0.23000
C3473       C  0.62977260  0.83696798  0.94969522    -0.05800
C3474       C  0.61866806  0.80536501  0.94392461     0.00100
C3475       C  0.63364813  0.79071140  0.92705717    -0.08500
C3476       C  0.66035969  0.80723422  0.91775523    -0.05800
C3477       C  0.67053237  0.83889322  0.92328284     0.00100
C3478       C  0.65470374  0.85442660  0.93927063    -0.08400
C3479       C  0.66344902  0.88966534  0.94482013     0.62000
H3480       H  0.61803417  0.84846627  0.96217159     0.12700
H3481       H  0.67272733  0.79626174  0.90529960     0.12700
C3482       C  0.62100088  0.75876399  0.91794180     0.62200
F3483       F  0.64492117  0.90051476  0.96062417    -0.22900
F3484       F  0.65643965  0.91043539  0.92933525    -0.20300
F3485       F  0.69749627  0.89189639  0.94954310    -0.19900
F3486       F  0.58751096  0.76265038  0.91220990    -0.20000
F3487       F  0.62383184  0.73305885  0.93102076    -0.20300
F3488       F  0.63927726  0.74999963  0.90159186    -0.23000
C3489       C  0.86049950  0.81106449  0.91718807    -0.05800
C3490       C  0.84778218  0.84155520  0.92336648     0.00100
C3491       C  0.86271491  0.85728774  0.93965245    -0.08500
C3492       C  0.88942495  0.84107867  0.94966362    -0.05800
C3493       C  0.90290797  0.81068425  0.94325331     0.00100
C3494       C  0.88896503  0.79612549  0.92600759    -0.08400
C3495       C  0.90450192  0.76616582  0.91592251     0.62000
H3496       H  0.84875698  0.79994529  0.90452524     0.12700
H3497       H  0.90023858  0.85240215  0.96251697     0.12700
C3498       C  0.85054335  0.89102368  0.94638329     0.62200
F3499       F  0.88804804  0.75869841  0.89864128    -0.22900
F3500       F  0.90256662  0.73863189  0.92767483    -0.20300
F3501       F  0.93801593  0.77250178  0.91146058    -0.19900
F3502       F  0.81837059  0.88849835  0.95407071    -0.20000
F3503       F  0.84967550  0.91282707  0.93091837    -0.20300
F3504       F  0.87172955  0.90409238  0.96051468    -0.23000
C3505       C  0.66351452  0.61598226  0.92895643    -0.05800
C3506       C  0.68076350  0.64599657  0.92608753     0.00100
C3507       C  0.67511669  0.67238038  0.93939739    -0.08500
C3508       C  0.64801662  0.66976256  0.95236739    -0.05800
C3509       C  0.62638192  0.64254439  0.95206708     0.00100
C3510       C  0.63556781  0.61408975  0.94152892    -0.08400
C3511       C  0.61431590  0.58309649  0.94242740     0.62000
H3512       H  0.66962485  0.59518837  0.91969057     0.12700
H3513       H  0.64114191  0.69057286  0.96145877     0.12700
C3514       C  0.69582132  0.70394816  0.93951435     0.62200
F3515       F  0.62904559  0.55731094  0.93223563    -0.22900
F3516       F  0.58248261  0.58923379  0.93459790    -0.20300
F3517       F  0.61095857  0.57337336  0.96157301    -0.19900
F3518       F  0.69351884  0.71958312  0.92171717    -0.19200
F3519       F  0.72921754  0.69638901  0.94371272    -0.20300
F3520       F  0.68490984  0.72610695  0.95350373    -0.23000
C3521       C  0.85589953  0.62265596  0.93039057    -0.05800
C3522       C  0.83880737  0.65239512  0.92585452     0.00100
C3523       C  0.84560893  0.68099644  0.93726341    -0.08500
C3524       C  0.87223216  0.67958692  0.95085560    -0.05800
C3525       C  0.89315617  0.65171597  0.95260197     0.00100
C3526       C  0.88370847  0.62201918  0.94338742    -0.08400
C3527       C  0.90427495  0.59065677  0.94632384     0.62000
H3528       H  0.84931689  0.60061576  0.92231767     0.12700
H3529       H  0.87946580  0.70161538  0.95877040     0.12700
C3530       C  0.82729363  0.71381452  0.93424623     0.62200
F3531       F  0.89049964  0.56427206  0.93626052    -0.22900
F3532       F  0.90503758  0.58271723  0.96586283    -0.20300
F3533       F  0.93710045  0.59523199  0.93991351    -0.19900
F3534       F  0.79337264  0.71044256  0.93850311    -0.20000
F3535       F  0.83089299  0.72417301  0.91525066    -0.20300
F3536       F  0.83987550  0.73845721  0.94620219    -0.23000
C3537       C  0.85939379  0.88884574  0.18498985    -0.05800
C3538       C  0.85228608  0.90593025  0.16764643     0.00100
C3539       C  0.87317363  0.93295227  0.16236129    -0.08500
C3540       C  0.89912092  0.94309842  0.17530297    -0.05800
C3541       C  0.90587999  0.92627153  0.19275407     0.00100
C3542       C  0.88610282  0.89838904  0.19756986    -0.08400
C3543       C  0.89293744  0.87926207  0.21613984     0.62000
H3544       H  0.84387890  0.86772230  0.18852438     0.12700
H3545       H  0.91419650  0.96464014  0.17200564     0.12700
C3546       C  0.86763146  0.95155113  0.14338620     0.62200
F3547       F  0.87150307  0.85249820  0.21797958    -0.22900
F3548       F  0.88831035  0.89969313  0.23202177    -0.20300
F3549       F  0.92596895  0.86753140  0.21618291    -0.19900
F3550       F  0.89110160  0.97648953  0.14101915    -0.20000
F3551       F  0.83544712  0.96533017  0.14309721    -0.20300
F3552       F  0.87097085  0.93064752  0.12767911    -0.23000
C3553       C  0.64634871  0.91727293  0.16135183    -0.05800
C3554       C  0.67249533  0.89700781  0.16885795     0.00100
C3555       C  0.66953543  0.88487654  0.18815493    -0.08500
C3556       C  0.64229445  0.89614556  0.19975589    -0.05800
C3557       C  0.61673264  0.91697647  0.19228290     0.00100
C3558       C  0.61791127  0.92638472  0.17253954    -0.08400
C3559       C  0.58848126  0.94493206  0.16325093     0.62000
H3560       H  0.64801293  0.92521771  0.14636931     0.12700
H3561       H  0.64105585  0.88918976  0.21492664     0.12700
C3562       C  0.69434941  0.85955206  0.19636947     0.62200
F3563       F  0.59458732  0.95229154  0.14395322    -0.22900
F3564       F  0.58246502  0.97413653  0.17300432    -0.20300
F3565       F  0.55970305  0.92561910  0.16414246    -0.19900
F3566       F  0.72572005  0.87371722  0.19938603    -0.20000
F3567       F  0.69766491  0.83337190  0.18359325    -0.20300
F3568       F  0.68340334  0.84705536  0.21395400    -0.23000
C3569       C  0.89311651  0.57164224  0.18375446    -0.05800
C3570       C  0.90935117  0.59358681  0.19645830     0.00100
C3571       C  0.89941221  0.62726070  0.19662625    -0.08500
C3572       C  0.87216785  0.63746402  0.18445397    -0.05800
C3573       C  0.85529593  0.61498049  0.17217288     0.00100
C3574       C  0.86656946  0.58172024  0.17141883    -0.08400
C3575       C  0.85065495  0.55673579  0.15766315     0.62000
H3576       H  0.90112175  0.54599357  0.18388303     0.12700
H3577       H  0.86367583  0.66294499  0.18449678     0.12700
C3578       C  0.91685480  0.65180026  0.20995595     0.62200
F3579       F  0.86610682  0.52610680  0.15919515    -0.22900
F3580       F  0.85393837  0.56729125  0.13868725    -0.20300
F3581       F  0.81668848  0.55280652  0.16182497    -0.19900
F3582       F  0.95086361  0.65365806  0.20526304    -0.20000
F3583       F  0.91385007  0.64178376  0.22908094    -0.20300
F3584       F  0.90292120  0.68313451  0.20827449    -0.23000
C3585       C  0.63572482  0.61736477  0.19909535    -0.05800
C3586       C  0.62278167  0.58581789  0.19507056     0.00100
C3587       C  0.63538963  0.56763258  0.17908411    -0.08500
C3588       C  0.66159351  0.58105779  0.16802891    -0.05800
C3589       C  0.67537893  0.61201152  0.17236698     0.00100
C3590       C  0.66198967  0.63095834  0.18782255    -0.08400
C3591       C  0.67499594  0.66542220  0.19199995     0.62000
H3592       H  0.62575214  0.63083614  0.21141543     0.12700
H3593       H  0.67189849  0.56730774  0.15589265     0.12700
C3594       C  0.62084650  0.53429888  0.17357162     0.62200
F3595       F  0.65903479  0.67948086  0.20785445    -0.22900
F3596       F  0.66910022  0.68537399  0.17601460    -0.20300
F3597       F  0.70944286  0.66443339  0.19587076    -0.19900
F3598       F  0.58591172  0.53689622  0.17192998    -0.20000
F3599       F  0.62920676  0.51122123  0.18761712    -0.20300
F3600       F  0.63326779  0.52300198  0.15600136    -0.23000
C3601       C  0.58788328  0.65041755  0.66216778    -0.05800
C3602       C  0.61617135  0.66606229  0.67024735     0.00100
C3603       C  0.63060212  0.65406109  0.68770473    -0.08500
C3604       C  0.61538280  0.62680346  0.69683574    -0.05800
C3605       C  0.58703511  0.61061308  0.68871112     0.00100
C3606       C  0.57326478  0.62248350  0.67073119    -0.08400
C3607       C  0.54410815  0.60583420  0.65996040     0.62000
H3608       H  0.57777665  0.66016283  0.64864881     0.12700
H3609       H  0.62602636  0.61762834  0.71033818     0.12700
C3610       C  0.66261772  0.66918694  0.69615749     0.62200
F3611       F  0.53668243  0.62110295  0.64241966    -0.22900
F3612       F  0.51501619  0.60704073  0.67100245    -0.20300
F3613       F  0.55259412  0.57336105  0.65593766    -0.19900
F3614       F  0.65704313  0.70202324  0.70063345    -0.20000
F3615       F  0.68851859  0.66693078  0.68275636    -0.20300
F3616       F  0.67309360  0.65323982  0.71296187    -0.23000
C3617       C  0.61705283  0.88053015  0.69835417    -0.05800
C3618       C  0.58759971  0.89559218  0.69055837     0.00100
C3619       C  0.57369536  0.88292856  0.67279139    -0.08500
C3620       C  0.58920004  0.85530523  0.66422231    -0.05800
C3621       C  0.61836023  0.84063122  0.67204649     0.00100
C3622       C  0.63302491  0.85348176  0.68918366    -0.08400
C3623       C  0.66582000  0.83919982  0.69731393     0.62000
H3624       H  0.62785431  0.89036092  0.71162993     0.12700
H3625       H  0.57900835  0.84493653  0.65091143     0.12700
C3626       C  0.54323324  0.89816378  0.66228037     0.62200
F3627       F  0.67599351  0.85524029  0.71411576    -0.22900
F3628       F  0.69130851  0.84233508  0.68373781    -0.20300
F3629       F  0.66161351  0.80614630  0.70161944    -0.19900
F3630       F  0.54962154  0.93091458  0.65800584    -0.20000
F3631       F  0.51462822  0.89570324  0.67367844    -0.20300
F3632       F  0.53616095  0.88244046  0.64484586    -0.23000
C3633       C  0.88378900  0.64839704  0.67607129    -0.05800
C3634       C  0.91123202  0.66798523  0.67031687     0.00100
C3635       C  0.94428089  0.66102617  0.67734616    -0.08500
C3636       C  0.94903294  0.63322540  0.68914721    -0.05800
C3637       C  0.92212678  0.61216842  0.69378150     0.00100
C3638       C  0.88866780  0.62040849  0.68791862    -0.08400
C3639       C  0.85864703  0.59931638  0.69360381     0.62000
H3640       H  0.85867688  0.65475444  0.67071807     0.12700
H3641       H  0.97426613  0.62690663  0.69431071     0.12700
C3642       C  0.97455560  0.68204943  0.67181388     0.62200
F3643       F  0.82849712  0.61134286  0.68585243    -0.22900
F3644       F  0.85570248  0.59903397  0.71360871    -0.20300
F3645       F  0.86322324  0.56734532  0.68700134    -0.19900
F3646       F  0.96990613  0.71400735  0.67833139    -0.20000
F3647       F  0.97816857  0.68231738  0.65185353    -0.20300
F3648       F  0.50188888  0.67579802  0.68100271    -0.23000
C3649       C  0.88779050  0.85939232  0.67829575    -0.05800
C3650       C  0.91472268  0.83898995  0.67239287     0.00100
C3651       C  0.94791419  0.84477859  0.67950576    -0.08500
C3652       C  0.95336816  0.87251628  0.69130827    -0.05800
C3653       C  0.92691443  0.89436090  0.69613675     0.00100
C3654       C  0.89329765  0.88718604  0.69018872    -0.08400
C3655       C  0.86378231  0.90953939  0.69548518     0.62000
H3656       H  0.86258145  0.85402441  0.67282281     0.12700
H3657       H  0.97881752  0.87817904  0.69628201     0.12700
C3658       C  0.97761881  0.82259088  0.67407042     0.62200
F3659       F  0.83335005  0.89807616  0.68798065    -0.22900
F3660       F  0.86911888  0.94091363  0.68822461    -0.20300
F3661       F  0.86083524  0.91108539  0.71546525    -0.19900
F3662       F  0.46799791  0.81353928  0.65871793    -0.20000
F3663       F  0.97172900  0.79072341  0.68031258    -0.20300
F3664       F  0.49509530  0.82729644  0.68617544    -0.23000
C3665       C  0.81876206  0.62517751  0.56965485    -0.05800
C3666       C  0.83607314  0.61590850  0.55260824     0.00100
C3667       C  0.86480020  0.63473007  0.54691487    -0.08500
C3668       C  0.87518048  0.66147885  0.55875256    -0.05800
C3669       C  0.85794923  0.66992442  0.57583572     0.00100
C3670       C  0.82903695  0.65176935  0.58131918    -0.08400
C3671       C  0.80852807  0.66090391  0.59922519     0.62000
H3672       H  0.79673340  0.61128364  0.57400289     0.12700
H3673       H  0.89721684  0.67589029  0.55494495     0.12700
C3674       C  0.88461413  0.62700017  0.52862627     0.62200
F3675       F  0.78026800  0.64108113  0.60130323    -0.22900
F3676       F  0.79762470  0.69332550  0.59774447    -0.20300
F3677       F  0.82802860  0.65738449  0.61584369    -0.19900
F3678       F  0.86336602  0.62913814  0.51259253    -0.20000
F3679       F  0.89840938  0.59558334  0.52987092    -0.20300
F3680       F  0.91104515  0.64886341  0.52587841    -0.23000
C3681       C  0.82073587  0.88893058  0.57051818    -0.05800
C3682       C  0.83915334  0.89861697  0.55395348     0.00100
C3683       C  0.86883210  0.88027046  0.54905677    -0.08500
C3684       C  0.87883247  0.85339836  0.56095007    -0.05800
C3685       C  0.86058516  0.84465179  0.57756331     0.00100
C3686       C  0.83108312  0.86264717  0.58251159    -0.08400
C3687       C  0.81068058  0.85424904  0.60052344     0.62000
H3688       H  0.79803795  0.90249214  0.57436802     0.12700
H3689       H  0.90129817  0.83906586  0.55753172     0.12700
C3690       C  0.88975792  0.88845557  0.53139067     0.62200
F3691       F  0.78127430  0.87298902  0.60179150    -0.22900
F3692       F  0.82981558  0.86022393  0.61703001    -0.20300
F3693       F  0.80164728  0.82131201  0.60014569    -0.19900
F3694       F  0.90235805  0.92015232  0.53300740    -0.20000
F3695       F  0.86954052  0.88588675  0.51501793    -0.20300
F3696       F  0.91706402  0.86711823  0.52921070    -0.23000
C3697       C  0.69813510  0.63815873  0.55542765    -0.05800
C3698       C  0.67166776  0.61659934  0.55047629     0.00100
C3699       C  0.63807482  0.62417563  0.55620341    -0.08500
C3700       C  0.63283885  0.65124483  0.56871633    -0.05800
C3701       C  0.65993546  0.67103877  0.57491112     0.00100
C3702       C  0.69278918  0.66561575  0.56742074    -0.08400
C3703       C  0.72222971  0.68804322  0.57262572     0.62000
H3704       H  0.72352504  0.63247757  0.55043083     0.12700
H3705       H  0.60775563  0.65663473  0.57426549     0.12700
C3706       C  0.60827721  0.60327972  0.54974393     0.62200
F3707       F  0.75209196  0.67804407  0.56385429    -0.22900
F3708       F  0.72729354  0.68805024  0.59250547    -0.20300
F3709       F  0.71521936  0.71984817  0.56652575    -0.19900
F3710       F  0.61256880  0.57118008  0.55619993    -0.20000
F3711       F  0.60608820  0.60347756  0.52968347    -0.20300
F3712       F  0.57786009  0.61522369  0.55694663    -0.23000
C3713       C  0.63816857  0.86286263  0.57311735    -0.05800
C3714       C  0.66414876  0.84032349  0.57766267     0.00100
C3715       C  0.69678444  0.84405301  0.56959762    -0.08500
C3716       C  0.70251131  0.87097827  0.55728866    -0.05800
C3717       C  0.67691354  0.89425904  0.55323544     0.00100
C3718       C  0.64413991  0.89028695  0.56113505    -0.08400
C3719       C  0.61642131  0.91591868  0.55797222     0.62000
H3720       H  0.61353115  0.85939039  0.57966910     0.12700
H3721       H  0.72755801  0.87489387  0.55133799     0.12700
C3722       C  0.72574380  0.82068208  0.57480236     0.62200
F3723       F  0.58721828  0.90829949  0.56805949    -0.22900
F3724       F  0.60823585  0.91769008  0.53844275    -0.20300
F3725       F  0.62753803  0.94646431  0.56430235    -0.19900
F3726       F  0.71776911  0.78887792  0.56926681    -0.20000
F3727       F  0.73134954  0.82135101  0.59464097    -0.20300
F3728       F  0.75561703  0.82924333  0.56566282    -0.23000
C3729       C  0.63441573  0.65596330  0.31744814    -0.05800
C3730       C  0.61358705  0.66181684  0.33357778     0.00100
C3731       C  0.58760658  0.63881943  0.33793393    -0.08500
C3732       C  0.58414060  0.61034123  0.32625928    -0.05800
C3733       C  0.60391116  0.60514214  0.30963603     0.00100
C3734       C  0.62934895  0.62847442  0.30507188    -0.08400
C3735       C  0.65014534  0.62486328  0.28676858     0.62000
H3736       H  0.65420011  0.67361921  0.31437490     0.12700
H3737       H  0.56425908  0.59277006  0.32931506     0.12700
C3738       C  0.56221581  0.64530504  0.35408478     0.62200
F3739       F  0.67420879  0.64948824  0.28519580    -0.22900
F3740       F  0.62906307  0.62656469  0.27064806    -0.20300
F3741       F  0.66675919  0.59469687  0.28694196    -0.19900
F3742       F  0.53588310  0.62282083  0.35377561    -0.20000
F3743       F  0.54832816  0.67656999  0.35200014    -0.20300
F3744       F  0.57792674  0.64303354  0.37199106    -0.23000
C3745       C  0.62634165  0.87512125  0.30303965    -0.05800
C3746       C  0.59890484  0.89591090  0.30778133     0.00100
C3747       C  0.58033348  0.88950092  0.32488143    -0.08500
C3748       C  0.58753628  0.86064803  0.33562390    -0.05800
C3749       C  0.61404328  0.83899679  0.33053820     0.00100
C3750       C  0.63499738  0.84728309  0.31458428    -0.08400
C3751       C  0.66669889  0.82730537  0.31011319     0.62000
H3752       H  0.64041592  0.88036206  0.28995046     0.12700
H3753       H  0.57311118  0.85519367  0.34855949     0.12700
C3754       C  0.55440533  0.91427067  0.33233628     0.62200
F3755       F  0.68528436  0.84138796  0.29530459    -0.22900
F3756       F  0.65797823  0.79570778  0.30450658    -0.20300
F3757       F  0.68728346  0.82560917  0.32644946    -0.19900
F3758       F  0.52890293  0.91937979  0.31880420    -0.20000
F3759       F  0.57044213  0.94397037  0.33593472    -0.20300
F3760       F  0.53956345  0.90380821  0.34941656    -0.23000
C3761       C  0.66995000  0.67172124  0.44324056    -0.05800
C3762       C  0.64082182  0.66898183  0.43150073     0.00100
C3763       C  0.62048676  0.64022328  0.43275899    -0.08500
C3764       C  0.63225274  0.61368026  0.44407395    -0.05800
C3765       C  0.66264483  0.61568017  0.45458314     0.00100
C3766       C  0.68097618  0.64554517  0.45508851    -0.08400
C3767       C  0.71192192  0.64963410  0.46811552     0.62000
H3768       H  0.68494655  0.69399749  0.44231408     0.12700
H3769       H  0.61824143  0.59069570  0.44409589     0.12700
C3770       C  0.58725314  0.63559538  0.42188520     0.62200
F3771       F  0.72427284  0.68156475  0.46757438    -0.22900
F3772       F  0.73758484  0.62850064  0.46236254    -0.20300
F3773       F  0.70329103  0.64251819  0.48709851    -0.19900
F3774       F  0.59183651  0.61242021  0.40736646    -0.20000
F3775       F  0.57502382  0.66453770  0.41373612    -0.20300
F3776       F  0.56289613  0.62410197  0.43455433    -0.23000
C3777       C  0.62709607  0.86259684  0.43344890    -0.05800
C3778       C  0.65125821  0.83838823  0.42870532     0.00100
C3779       C  0.68468752  0.84060274  0.43623432    -0.08500
C3780       C  0.69342116  0.86840835  0.44736277    -0.05800
C3781       C  0.66967030  0.89332541  0.45148643     0.00100
C3782       C  0.63572066  0.89017901  0.44488918    -0.08400
C3783       C  0.60929119  0.91661114  0.44903847     0.62000
H3784       H  0.60168451  0.86017626  0.42754548     0.12700
H3785       H  0.71922109  0.87135176  0.45260049     0.12700
C3786       C  0.71124057  0.81426311  0.43200412     0.62200
F3787       F  0.57844476  0.90965866  0.44025239    -0.22900
F3788       F  0.62025831  0.94678036  0.44213226    -0.20300
F3789       F  0.60409227  0.91879802  0.46884044    -0.19900
F3790       F  0.71572061  0.81139720  0.41217062    -0.20000
F3791       F  0.70096820  0.78420567  0.43931851    -0.20300
F3792       F  0.74223983  0.82167825  0.44047053    -0.23000
C3793       C  0.89939618  0.61453336  0.31343984    -0.05800
C3794       C  0.93448541  0.61199608  0.30980019     0.00100
C3795       C  0.95637919  0.63680291  0.31784306    -0.08500
C3796       C  0.94231898  0.66292507  0.32858675    -0.05800
C3797       C  0.90762309  0.66570546  0.33187474     0.00100
C3798       C  0.88556973  0.64117020  0.32435554    -0.08400
C3799       C  0.84760855  0.64393395  0.32744783     0.62000
H3800       H  0.88277878  0.59606396  0.30724336     0.12700
H3801       H  0.95852338  0.68179171  0.33476274     0.12700
C3802       C  0.99479861  0.63649068  0.31545830     0.62200
F3803       F  0.83026518  0.61825988  0.31866038    -0.22900
F3804       F  0.83584453  0.67333602  0.31961598    -0.20300
F3805       F  0.84046382  0.64338639  0.34707947    -0.19900
F3806       F  0.00318193  0.64532393  0.29670350    -0.20000
F3807       F  0.00761805  0.60544357  0.31974167    -0.20300
F3808       F  0.01058345  0.65883759  0.32770536    -0.23000
C3809       C  0.88753075  0.86346079  0.32370879    -0.05800
C3810       C  0.91159005  0.83943047  0.32958188     0.00100
C3811       C  0.94597956  0.84381060  0.32452260    -0.08500
C3812       C  0.95482205  0.87127184  0.31320285    -0.05800
C3813       C  0.93104267  0.89535134  0.30702683     0.00100
C3814       C  0.89664829  0.89152000  0.31254715    -0.08400
C3815       C  0.86971925  0.91646388  0.30658444     0.62000
H3816       H  0.86153857  0.86031511  0.32832835     0.12700
H3817       H  0.98104393  0.87405668  0.30905873     0.12700
C3818       C  0.97363092  0.82022904  0.33159506     0.62200
F3819       F  0.83785687  0.90764683  0.31308389    -0.22900
F3820       F  0.86828346  0.91876095  0.28654929    -0.20300
F3821       F  0.87746131  0.94701281  0.31438067    -0.19900
F3822       F  0.96763653  0.78878217  0.32466382    -0.20000
F3823       F  0.97420746  0.81958048  0.35167373    -0.20300
F3824       F  0.00551381  0.82956058  0.32535665    -0.23000
C3825       C  0.85632392  0.63200371  0.45345677    -0.05800
C3826       C  0.82867844  0.61438474  0.44565135     0.00100
C3827       C  0.81444244  0.62466883  0.42745490    -0.08500
C3828       C  0.82681013  0.65341814  0.41880889    -0.05800
C3829       C  0.85458343  0.67041635  0.42640630     0.00100
C3830       C  0.87025057  0.65941431  0.44379051    -0.08400
C3831       C  0.90196543  0.67585002  0.45170774     0.62000
H3832       H  0.86740867  0.62382587  0.46707257     0.12700
H3833       H  0.81585623  0.66229969  0.40529241     0.12700
C3834       C  0.78786507  0.60504424  0.41620387     0.62200
F3835       F  0.91515130  0.65908530  0.46761144    -0.22900
F3836       F  0.89455638  0.70778481  0.45740247    -0.20300
F3837       F  0.92664280  0.67654904  0.43752708    -0.19900
F3838       F  0.75725407  0.60557948  0.42587623    -0.20000
F3839       F  0.79897178  0.57282529  0.41379874    -0.20300
F3840       F  0.78201347  0.61782324  0.39781017    -0.23000
C3841       C  0.87793455  0.85779922  0.43696009    -0.05800
C3842       C  0.85470001  0.84367616  0.42394807     0.00100
C3843       C  0.82146778  0.85652453  0.42235174    -0.08500
C3844       C  0.81224645  0.88290345  0.43438576    -0.05800
C3845       C  0.83562812  0.89821104  0.44705245     0.00100
C3846       C  0.86931624  0.88556446  0.44828143    -0.08400
C3847       C  0.89646308  0.90157170  0.46076791     0.62000
H3848       H  0.90331520  0.84743204  0.43761724     0.12700
H3849       H  0.78653109  0.89233174  0.43350766     0.12700
C3850       C  0.79627055  0.84324500  0.40746870     0.62200
F3851       F  0.92767457  0.88606414  0.45883192    -0.22900
F3852       F  0.88744166  0.89976356  0.48003629    -0.20300
F3853       F  0.90022537  0.93427518  0.45545676    -0.19900
F3854       F  0.79004164  0.81022228  0.41088888    -0.20000
F3855       F  0.80929936  0.84669965  0.38899624    -0.20300
F3856       F  0.76558922  0.86004500  0.40802979    -0.23000
loop_ 
_geom_bond_atom_site_label_1 
_geom_bond_atom_site_label_2 
_geom_bond_distance 
_geom_bond_site_symmetry_2 
_ccdc_geom_bond_type 
N1            C6   1.354       .  A
N1            C5   1.352       .  A
N1           H33   1.040       .  S
N2            C9   1.350       .  A
N2           C10   1.351       .  A
N3            C8   1.353       .  A
N3            C7   1.353       .  A
N3           H34   1.041       .  S
N4           C11   1.355       .  A
N4           C12   1.354       .  A
C5           C13   1.385       .  A
C5           C21   1.411       .  A
C6           C22   1.418       .  A
C6           C14   1.389       .  A
C7           C15   1.386       .  A
C7           C24   1.414       .  A
C8           C23   1.417       .  A
C8           C16   1.387       .  A
C9           C21   1.409       .  A
C9           C17   1.386       .  A
C10          C24   1.411       .  A
C10          C18   1.386       .  A
C11          C19   1.385       .  A
C11          C22   1.421       .  A
C12          C20   1.388       .  A
C12          C23   1.426       .  A
C13          C14   1.377       .  A
C13          H25   1.082       .  S
C14          H26   1.082       .  S
C15          C16   1.377       .  A
C15          H27   1.083       .  S
C16          H28   1.082       .  S
C17          C18   1.376       .  A
C17          H29   1.082       .  S
C18          H30   1.082       .  S
C19          C20   1.382       .  A
C19          H31   1.082       .  S
C20          H32   1.082       .  S
C21         C950   1.486       .  S
C22         C918   1.504       .  S
C23         C905   1.506       .  S
C24         C937   1.492       .  S
N35          C40   1.356       .  A
N35          C39   1.353       .  A
N35          H67   1.042       .  S
N36          C43   1.355       .  A
N36          C44   1.357       .  A
N37          C42   1.351       .  A
N37          C41   1.351       .  A
N37          H68   1.044       .  S
N38          C45   1.346       .  A
N38          C46   1.346       .  A
C39          C47   1.388       .  A
C39          C55   1.418       .  A
C40          C56   1.418       .  A
C40          C48   1.387       .  A
C41          C49   1.387       .  A
C41          C58   1.410       .  A
C42          C57   1.413       .  A
C42          C50   1.388       .  A
C43          C55   1.423       .  A
C43          C51   1.387       .  A
C44          C58   1.424       .  A
C44          C52   1.386       .  A
C45          C53   1.386       .  A
C45          C56   1.406       .  A
C46          C54   1.386       .  A
C46          C57   1.406       .  A
C47          C48   1.375       .  A
C47          H59   1.082       .  S
C48          H60   1.082       .  S
C49          C50   1.378       .  A
C49          H61   1.082       .  S
C50          H62   1.082       .  S
C51          C52   1.384       .  A
C51          H63   1.082       .  S
C52          H64   1.082       .  S
C53          C54   1.376       .  A
C53          H65   1.082       .  S
C54          H66   1.082       .  S
C55         C857   1.501       .  S
C56         C886   1.488       .  S
C57         C870   1.480       .  S
C58         C838   1.506       .  S
N69          N70   1.325       .  A
N69          N75   1.315       .  A
N69       Mn1062   2.225       .  S
N70          C77   1.359       .  A
N71          N73   1.314       .  A
N71          N72   1.314       .  A
N71         Mn87   2.180       .  S
N72          C78   1.346       .  A
N73          N74   1.326       .  A
N73         Mn98   2.222       .  S
N74          C78   1.361       .  A
N75          N76   1.314       .  A
N75       Mn1051   2.183       .  S
N76          C77   1.351       .  A
C77         C953   1.496       .  S
C78         C934   1.491       .  S
N79          N85   1.315       .  A
N79          N80   1.322       .  A
N79        Mn109   2.205       .  S
N80          C88   1.355       .  A
N81          N82   1.317       .  A
N81          N83   1.314       .  A
N81       Mn1051   2.194       .  S
N82          C89   1.350       .  A
N83          N84   1.325       .  A
N83       Mn1073   2.210       .  S
N84          C89   1.357       .  A
N85          N86   1.316       .  A
N85         Mn87   2.177       .  S
N86          C88   1.346       .  A
Mn87       N1039   2.171   1_545  S
Mn87       N1045   2.189   1_545  S
Mn87       Cl111   2.512       .  S
C88         C873   1.465       .  S
C89         C889   1.483       .  S
N90          N91   1.327       .  A
N90          N96   1.315       .  A
N90         Mn98   2.231       .  S
N91          C99   1.361       .  A
N92          N94   1.315       .  A
N92          N93   1.314       .  A
N92       Mn1074   2.181       .  S
N93         C100   1.350       .  A
N94          N95   1.326       .  A
N94       Mn1062   2.222       .  S
N95         C100   1.359       .  A
N96          N97   1.315       .  A
N96        Mn110   2.186       .  S
N97          C99   1.351       .  A
Mn98       N1033   2.229   1_545  S
Mn98       N1058   2.227   1_545  S
Mn98       Cl111   2.580       .  S
C99         C774   1.501       .  S
C100        C790   1.490       .  S
N101        N102   1.323       .  A
N101        N107   1.316       .  A
N101      Mn1073   2.211       .  S
N102        C112   1.354       .  A
N103        N104   1.316       .  A
N103        N105   1.314       .  A
N103       Mn110   2.184       .  S
N104        C113   1.349       .  A
N105        N106   1.324       .  A
N105       Mn109   2.213       .  S
N106        C113   1.356       .  A
N107        N108   1.318       .  A
N107      Mn1074   2.202       .  S
N108        C112   1.351       .  A
Mn109      N1047   2.220   1_545  S
Mn109      N1065   2.202   1_545  S
Mn109      Cl111   2.578       .  S
Mn110      N1056   2.175   1_545  S
Mn110      N1071   2.192   1_545  S
Mn110      Cl111   2.509       .  S
C112        C825   1.477       .  S
C113        C806   1.479       .  S
N114        C119   1.355       .  A
N114        C118   1.352       .  A
N114        H146   1.038       .  S
N115        C122   1.351       .  A
N115        C123   1.353       .  A
N116        C121   1.353       .  A
N116        C120   1.352       .  A
N116        H147   1.038       .  S
N117        C124   1.347       .  A
N117        C125   1.347       .  A
C118        C126   1.388       .  A
C118        C134   1.416       .  A
C119        C135   1.417       .  A
C119        C127   1.386       .  A
C120        C128   1.386       .  A
C120        C137   1.413       .  A
C121        C136   1.416       .  A
C121        C129   1.388       .  A
C122        C134   1.416       .  A
C122        C130   1.387       .  A
C123        C137   1.414       .  A
C123        C131   1.385       .  A
C124        C132   1.386       .  A
C124        C135   1.406       .  A
C125        C133   1.387       .  A
C125        C136   1.407       .  A
C126        C127   1.376       .  A
C126        H138   1.082       .  S
C127        H139   1.082       .  S
C128        C129   1.377       .  A
C128        H140   1.082       .  S
C129        H141   1.082       .  S
C130        C131   1.376       .  A
C130        H142   1.082       .  S
C131        H143   1.082       .  S
C132        C133   1.374       .  A
C132        H144   1.082       .  S
C133        H145   1.082       .  S
C134        C793   1.488       .  S
C135        C758   1.488       .  S
C136        C742   1.483       .  S
C137        C777   1.493       .  S
N148        C153   1.354       .  A
N148        C152   1.351       .  A
N148        H180   1.040       .  S
N149        C156   1.350       .  A
N149        C157   1.351       .  A
N150        C155   1.353       .  A
N150        C154   1.351       .  A
N150        H181   1.040       .  S
N151        C158   1.345       .  A
N151        C159   1.345       .  A
C152        C160   1.385       .  A
C152        C168   1.412       .  A
C153        C169   1.417       .  A
C153        C161   1.388       .  A
C154        C162   1.386       .  A
C154        C171   1.411       .  A
C155        C170   1.416       .  A
C155        C163   1.388       .  A
C156        C168   1.412       .  A
C156        C164   1.386       .  A
C157        C171   1.412       .  A
C157        C165   1.386       .  A
C158        C166   1.386       .  A
C158        C169   1.407       .  A
C159        C167   1.386       .  A
C159        C170   1.406       .  A
C160        C161   1.376       .  A
C160        H172   1.082       .  S
C161        H173   1.082       .  S
C162        C163   1.376       .  A
C162        H174   1.082       .  S
C163        H175   1.082       .  S
C164        C165   1.380       .  A
C164        H176   1.082       .  S
C165        H177   1.082       .  S
C166        C167   1.379       .  A
C166        H178   1.082       .  S
C167        H179   1.082       .  S
C168        C729   1.488       .  S
C169        C822   1.486       .  S
C170        C809   1.483       .  S
C171        C710   1.489       .  S
N182        N183   1.311       .  A
N182        N188   1.317       .  A
N182      Mn2139   2.177       .  S
N183        C190   1.343       .  A
N184        N186   1.319       .  A
N184        N185   1.320       .  A
N184       Mn200   2.208       .  S
N185        C191   1.347       .  A
N186        N187   1.330       .  A
N186      Mn2139   2.250       .  S
N187        C191   1.363       .  A
N188        N189   1.336       .  A
N188       Mn200   2.264       .  S
N189        C190   1.371       .  A
C190        C921   1.508       .  S
C191        C649   1.493       .  S
N192        N198   1.317       .  A
N192        N193   1.329       .  A
N192      Mn2150   2.234       .  S
N193        C201   1.362       .  A
N194        N195   1.339       .  A
N194        N196   1.315       .  A
N194      Mn1164   2.276       .  S
N195        C202   1.376       .  A
N196        N197   1.306       .  A
N196      Mn2150   2.159       .  S
N197        C202   1.333       .  A
N198        N199   1.314       .  A
N198      Mn1164   2.189       .  S
N199        C201   1.345       .  A
Mn200      N1158   2.267       .  S
Mn200      N1162   2.194       .  S
Mn200     Cl2152   2.574       .  S
C201        C678   1.487       .  S
C202        C902   1.513       .  S
N203        N204   1.327       .  A
N203        N209   1.318       .  A
N203       Mn211   2.220       .  S
N204        C212   1.358       .  A
N205        N207   1.319       .  A
N205        N206   1.331       .  A
N205       Mn223   2.250       .  S
N206        C213   1.365       .  A
N207        N208   1.314       .  A
N207       Mn211   2.185       .  S
N208        C213   1.342       .  A
N209        N210   1.318       .  A
N209       Mn223   2.206       .  S
N210        C212   1.347       .  A
Mn211      N2110   2.171   1_455  S
Mn211      N2114   2.234   1_455  S
Mn211      Cl224   2.537       .  S
C212        C665   1.478       .  S
C213        C854   1.483       .  S
N214        N215   1.314       .  A
N214        N220   1.318       .  A
N214       Mn222   2.177       .  S
N215        C225   1.341       .  A
N216        N217   1.313       .  A
N216        N218   1.317       .  A
N216      Mn1187   2.185       .  S
N217        C226   1.344       .  A
N218        N219   1.328       .  A
N218       Mn222   2.225       .  S
N219        C226   1.361       .  A
N220        N221   1.333       .  A
N220      Mn1187   2.263       .  S
N221        C225   1.367       .  A
Mn222      N2120   2.222   1_455  S
Mn222      N2124   2.164   1_455  S
Mn222     Cl1188   2.538       .  S
Mn223      N1180   2.196       .  S
Mn223      N1184   2.256       .  S
Mn223      Cl224   2.569       .  S
Cl224     Mn2128   2.575   1_455  S
Cl224     Mn1186   2.530       .  S
C225        C841   1.488       .  S
C226        C694   1.479       .  S
N227        N228   1.325       .  A
N227        N233   1.313       .  A
N227      Mn2184   2.200       .  S
N228        C235   1.355       .  A
N229        N231   1.314       .  A
N229        N230   1.311       .  A
N229       Mn245   2.167       .  S
N230        C236   1.345       .  A
N231        N232   1.327       .  A
N231       Mn256   2.219       .  S
N232        C236   1.358       .  A
N233        N234   1.313       .  A
N233      Mn2173   2.183       .  S
N234        C235   1.350       .  A
C235        C633   1.473       .  S
C236        C617   1.470       .  S
N237        N243   1.314       .  A
N237        N238   1.325       .  A
N237       Mn267   2.228       .  S
N238        C246   1.362       .  A
N239        N240   1.312       .  A
N239        N241   1.314       .  A
N239      Mn2173   2.174       .  S
N240        C247   1.344       .  A
N241        N242   1.327       .  A
N241      Mn2195   2.235   1_556  S
N242        C247   1.364       .  A
N243        N244   1.315       .  A
N243       Mn245   2.180       .  S
N244        C246   1.347       .  A
Mn245      N2161   2.176   1_455  S
Mn245      N2167   2.170   1_455  S
Mn245      Cl269   2.510       .  S
C246        C582   1.498       .  S
C247        C601   1.498       .  S
N248        N249   1.323       .  A
N248        N254   1.315       .  A
N248       Mn256   2.199   1_554  S
N249        C257   1.353       .  A
N250        N252   1.315       .  A
N250        N251   1.314       .  A
N250      Mn2196   2.177       .  S
N251        C258   1.346       .  A
N252        N253   1.322       .  A
N252      Mn2184   2.205   1_554  S
N253        C258   1.354       .  A
N254        N255   1.316       .  A
N254       Mn268   2.195       .  S
N255        C257   1.349       .  A
Mn256      N2155   2.217   1_455  S
Mn256      N2180   2.203   1_456  S
Mn256      Cl269   2.581       .  S
C257        C521   1.464       .  S
C258        C534   1.463       .  S
N259        N260   1.327       .  A
N259        N265   1.313       .  A
N259      Mn2195   2.225       .  S
N260        C270   1.361       .  A
N261        N262   1.316       .  A
N261        N263   1.316       .  A
N261       Mn268   2.184       .  S
N262        C271   1.347       .  A
N263        N264   1.327       .  A
N263       Mn267   2.245   1_554  S
N264        C271   1.363       .  A
N265        N266   1.313       .  A
N265      Mn2196   2.174       .  S
N266        C270   1.348       .  A
Mn267      N2169   2.248   1_455  S
Mn267      N2187   2.232   1_456  S
Mn267      Cl269   2.585       .  S
Mn268      N2178   2.184   1_455  S
Mn268      N2193   2.196   1_455  S
Mn268      Cl269   2.513   1_554  S
C270        C566   1.494       .  S
C271        C550   1.496       .  S
N272        C277   1.355       .  A
N272        C276   1.355       .  A
N272        H304   1.034       .  S
N273        C280   1.354       .  A
N273        C281   1.353       .  A
N274        C279   1.358       .  A
N274        C278   1.356       .  A
N274        H305   1.036       .  S
N275        C282   1.355       .  A
N275        C283   1.355       .  A
C276        C284   1.389       .  A
C276        C292   1.424       .  A
C277        C293   1.421       .  A
C277        C285   1.387       .  A
C278        C286   1.389       .  A
C278        C295   1.425       .  A
C279        C294   1.423       .  A
C279        C287   1.387       .  A
C280        C292   1.419       .  A
C280        C288   1.386       .  A
C281        C295   1.420       .  A
C281        C289   1.388       .  A
C282        C290   1.387       .  A
C282        C293   1.422       .  A
C283        C291   1.386       .  A
C283        C294   1.422       .  A
C284        C285   1.371       .  A
C284        H296   1.082       .  S
C285        H297   1.082       .  S
C286        C287   1.373       .  A
C286        H298   1.082       .  S
C287        H299   1.082       .  S
C288        C289   1.370       .  A
C288        H300   1.082       .  S
C289        H301   1.082       .  S
C290        C291   1.375       .  A
C290        H302   1.082       .  S
C291        H303   1.082       .  S
C292        C598   1.496       .  S
C293        C502   1.498       .  S
C294        C486   1.502       .  S
C295        C585   1.495       .  S
N306        C311   1.350       .  A
N306        C310   1.349       .  A
N306        H338   1.045       .  S
N307        C314   1.352       .  A
N307        C315   1.344       .  A
N308        C313   1.358       .  A
N308        C312   1.360       .  A
N308        H339   1.041       .  S
N309        C316   1.355       .  A
N309        C317   1.347       .  A
C310        C318   1.386       .  A
C310        C326   1.399       .  A
C311        C327   1.394       .  A
C311        C319   1.385       .  A
C312        C320   1.387       .  A
C312        C329   1.425       .  A
C313        C328   1.424       .  A
C313        C321   1.387       .  A
C314        C326   1.418       .  A
C314        C322   1.385       .  A
C315        C329   1.415       .  A
C315        C323   1.389       .  A
C316        C324   1.385       .  A
C316        C327   1.418       .  A
C317        C325   1.389       .  A
C317        C328   1.416       .  A
C318        C319   1.365       .  A
C318        H330   1.083       .  S
C319        H331   1.083       .  S
C320        C321   1.380       .  A
C320        H332   1.082       .  S
C321        H333   1.082       .  S
C322        C323   1.381       .  A
C322        H334   1.082       .  S
C323        H335   1.082       .  S
C324        C325   1.377       .  A
C324        H336   1.081       .  S
C325        H337   1.082       .  S
C326        C614   1.501       .  S
C327        C630   1.498       .  S
C328        C470   1.494       .  S
C329        C457   1.497       .  S
N340        N341   1.331       .  A
N340        N346   1.312       .  A
N340       Mn369   2.235       .  S
N341        C348   1.366       .  A
N342        N344   1.311       .  A
N342        N343   1.314       .  A
N342      Mn1322   2.180       .  S
N343        C349   1.349       .  A
N344        N345   1.325       .  A
N344      Mn1333   2.211       .  S
N345        C349   1.359       .  A
N346        N347   1.309       .  A
N346       Mn358   2.165       .  S
N347        C348   1.342       .  A
C348        C726   1.498       .  S
C349        C713   1.495       .  S
N350        N356   1.313       .  A
N350        N351   1.325       .  A
N350      Mn1344   2.210       .  S
N351        C359   1.356       .  A
N352        N353   1.313       .  A
N352        N354   1.313       .  A
N352      Mn2286   2.174       .  S
N353        C360   1.347       .  A
N354        N355   1.327       .  A
N354       Mn380   2.218       .  S
N355        C360   1.359       .  A
N356        N357   1.315       .  A
N356      Mn3250   2.179       .  S
N357        C359   1.348       .  A
Mn358      N1306   2.168       .  S
Mn358      N2280   2.160   1_455  S
Mn358      N3248   2.168   1_455  S
Mn358      Cl382   2.523       .  S
C359        C745   1.473       .  S
C360        C761   1.478       .  S
N361        N362   1.317       .  A
N361        N367   1.318       .  A
N361      Mn1333   2.199       .  S
N362        C370   1.351       .  A
N363        N365   1.321       .  A
N363        N364   1.323       .  A
N363       Mn381   2.227       .  S
N364        C371   1.356       .  A
N365        N366   1.321       .  A
N365       Mn369   2.218       .  S
N366        C371   1.353       .  A
N367        N368   1.323       .  A
N367      Mn1345   2.225       .  S
N368        C370   1.358       .  A
Mn369      N1308   2.226       .  S
Mn369      N1325   2.194       .  S
Mn369      Cl382   2.564       .  S
C370        C454   1.477       .  S
C371        C489   1.489       .  S
N372        N373   1.320       .  A
N372        N378   1.319       .  A
N372       Mn380   2.206       .  S
N373        C383   1.351       .  A
N374        N375   1.324       .  A
N374        N376   1.316       .  A
N374      Mn3273   2.227       .  S
N375        C384   1.358       .  A
N376        N377   1.317       .  A
N376      Mn1344   2.187       .  S
N377        C384   1.350       .  A
N378        N379   1.324       .  A
N378      Mn2309   2.229       .  S
N379        C383   1.357       .  A
Mn380      N1314   2.206       .  S
Mn380      N1340   2.185       .  S
Mn380     Cl2310   2.555       .  S
Mn381      N1331   2.226       .  S
Mn381      N3266   2.226   1_455  S
Mn381      N2306   2.237   1_455  S
Mn381      Cl382   2.549       .  S
Cl382     Mn2308   2.558   1_455  S
C383        C505   1.486       .  S
C384        C473   1.478       .  S
N385        C390   1.348       .  A
N385        C389   1.345       .  A
N385        H417   1.041       .  S
N386        C393   1.350       .  A
N386        C394   1.349       .  A
N387        C392   1.355       .  A
N387        C391   1.357       .  A
N387        H418   1.041       .  S
N388        C395   1.352       .  A
N388        C396   1.347       .  A
C389        C397   1.385       .  A
C389        C405   1.399       .  A
C390        C406   1.407       .  A
C390        C398   1.388       .  A
C391        C399   1.387       .  A
C391        C408   1.422       .  A
C392        C407   1.419       .  A
C392        C400   1.387       .  A
C393        C405   1.411       .  A
C393        C401   1.387       .  A
C394        C408   1.408       .  A
C394        C402   1.385       .  A
C395        C403   1.385       .  A
C395        C406   1.414       .  A
C396        C404   1.387       .  A
C396        C407   1.410       .  A
C397        C398   1.376       .  A
C397        H409   1.082       .  S
C398        H410   1.082       .  S
C399        C400   1.380       .  A
C399        H411   1.082       .  S
C400        H412   1.082       .  S
C401        C402   1.374       .  A
C401        H413   1.082       .  S
C402        H414   1.082       .  S
C403        C404   1.375       .  A
C403        H415   1.082       .  S
C404        H416   1.082       .  S
C405        C537   1.475       .  S
C406        C518   1.491       .  S
C407        C697   1.487       .  S
C408        C681   1.494       .  S
N419        C424   1.355       .  A
N419        C423   1.359       .  A
N419        H451   1.040       .  S
N420        C427   1.354       .  A
N420        C428   1.352       .  A
N421        C426   1.355       .  A
N421        C425   1.351       .  A
N421        H452   1.037       .  S
N422        C429   1.351       .  A
N422        C430   1.354       .  A
C423        C431   1.386       .  A
C423        C439   1.423       .  A
C424        C440   1.423       .  A
C424        C432   1.388       .  A
C425        C433   1.389       .  A
C425        C442   1.417       .  A
C426        C441   1.415       .  A
C426        C434   1.386       .  A
C427        C439   1.416       .  A
C427        C435   1.386       .  A
C428        C442   1.418       .  A
C428        C436   1.387       .  A
C429        C437   1.388       .  A
C429        C440   1.416       .  A
C430        C438   1.385       .  A
C430        C441   1.413       .  A
C431        C432   1.383       .  A
C431        H443   1.082       .  S
C432        H444   1.082       .  S
C433        C434   1.376       .  A
C433        H445   1.082       .  S
C434        H446   1.082       .  S
C435        C436   1.372       .  A
C435        H447   1.082       .  S
C436        H448   1.082       .  S
C437        C438   1.372       .  A
C437        H449   1.082       .  S
C438        H450   1.082       .  S
C439        C646   1.507       .  S
C440        C662   1.497       .  S
C441        C553   1.495       .  S
C442        C569   1.487       .  S
C453        C454   1.401       .  A
C453        C458   1.404       .  A
C453        H460   1.084       .  S
C454        C455   1.411       .  A
C455        C456   1.412       .  A
C455        C462   1.516       .  S
C456        C457   1.409       .  A
C456        H461   1.083       .  S
C457        C458   1.419       .  A
C458        C459   1.519       .  S
C459        F463   1.384       .  S
C459        F464   1.383       .  S
C459        F465   1.379       .  S
C462        F466   1.383       .  S
C462        F467   1.384       .  S
C462        F468   1.384       .  S
C469        C470   1.406       .  A
C469        C474   1.410       .  A
C469        H476   1.083       .  S
C470        C471   1.417       .  A
C471        C472   1.406       .  A
C471        C478   1.517       .  S
C472        C473   1.402       .  A
C472        H477   1.084       .  S
C473        C474   1.412       .  A
C474        C475   1.514       .  S
C475        F479   1.384       .  S
C475        F480   1.383       .  S
C475        F481   1.383       .  S
C478        F482   1.380       .  S
C478        F483   1.383       .  S
C478        F484   1.384       .  S
C485        C486   1.405       .  A
C485        C490   1.412       .  A
C485        H492   1.083       .  S
C486        C487   1.418       .  A
C487        C488   1.411       .  A
C487        C494   1.518       .  S
C488        C489   1.406       .  A
C488        H493   1.083       .  S
C489        C490   1.417       .  A
C490        C491   1.518       .  S
C491        F495   1.384       .  S
C491        F496   1.382       .  S
C491        F497   1.383       .  S
C494        F498   1.385       .  S
C494        F499   1.382       .  S
C494        F500   1.382       .  S
C501        C502   1.404       .  A
C501        C506   1.410       .  A
C501        H508   1.083       .  S
C502        C503   1.416       .  A
C503        C504   1.412       .  A
C503        C510   1.518       .  S
C504        C505   1.406       .  A
C504        H509   1.083       .  S
C505        C506   1.415       .  A
C506        C507   1.517       .  S
C507        F511   1.384       .  S
C507        F512   1.384       .  S
C507        F513   1.382       .  S
C510        F514   1.382       .  S
C510        F515   1.383       .  S
C510        F516   1.384       .  S
C517        C518   1.407       .  A
C517        C522   1.403       .  A
C517        H524   1.083       .  S
C518        C519   1.419       .  A
C519        C520   1.404       .  A
C519        C526   1.518       .  S
C520        C521   1.401       .  A
C520        H525   1.084       .  S
C521        C522   1.409       .  A
C522        C523   1.519       .  S
C523        F527   1.385       .  S
C523        F528   1.381       .  S
C523        F529   1.383       .  S
C526        F530   1.382       .  S
C526        F531   1.383       .  S
C526        F532   1.384       .  S
C533        C534   1.401       .  A
C533        C538   1.401       .  A
C533        H540   1.084       .  S
C534        C535   1.413       .  A
C535        C536   1.403       .  A
C535        C542   1.516       .  S
C536        C537   1.400       .  A
C536        H541   1.083       .  S
C537        C538   1.415       .  A
C538        C539   1.521       .  S
C539        F543   1.385       .  S
C539        F544   1.382       .  S
C539        F545   1.382       .  S
C542        F546   1.383       .  S
C542        F547   1.382       .  S
C542        F548   1.385       .  S
C549        C550   1.406       .  A
C549        C554   1.410       .  A
C549        H556   1.082       .  S
C550        C551   1.429       .  A
C551        C552   1.408       .  A
C551        C558   1.520       .  S
C552        C553   1.398       .  A
C552        H557   1.083       .  S
C553        C554   1.415       .  A
C554        C555   1.516       .  S
C555        F559   1.385       .  S
C555        F560   1.382       .  S
C555        F561   1.382       .  S
C558        F562   1.379       .  S
C558        F563   1.382       .  S
C558        F564   1.385       .  S
C565        C566   1.412       .  A
C565        C570   1.402       .  A
C565        H572   1.082       .  S
C566        C567   1.422       .  A
C567        C568   1.411       .  A
C567        C574   1.517       .  S
C568        C569   1.403       .  A
C568        H573   1.083       .  S
C569        C570   1.412       .  A
C570        C571   1.523       .  S
C571        F575   1.384       .  S
C571        F576   1.383       .  S
C571        F577   1.380       .  S
C574        F578   1.384       .  S
C574        F579   1.382       .  S
C574        F580   1.385       .  S
C581        C582   1.409       .  A
C581        C586   1.409       .  A
C581        H588   1.082       .  S
C582        C583   1.431       .  A
C583        C584   1.407       .  A
C583        C590   1.523       .  S
C584        C585   1.398       .  A
C584        H589   1.083       .  S
C585        C586   1.414       .  A
C586        C587   1.518       .  S
C587        F591   1.385       .  S
C587        F592   1.383       .  S
C587        F593   1.381       .  S
C590        F594   1.383       .  S
C590        F595   1.381       .  S
C590        F596   1.385       .  S
C597        C598   1.398       .  A
C597        C602   1.406       .  A
C597        H604   1.083       .  S
C598        C599   1.415       .  A
C599        C600   1.410       .  A
C599        C606   1.517       .  S
C600        C601   1.408       .  A
C600        H605   1.082       .  S
C601        C602   1.433       .  A
C602        C603   1.525       .  S
C603        F607   1.385       .  S
C603        F608   1.379       .  S
C603        F609   1.383       .  S
C606        F610   1.381       .  S
C606        F611   1.383       .  S
C606        F612   1.385       .  S
C613        C614   1.411       .  A
C613        C618   1.409       .  A
C613        H620   1.083       .  S
C614        C615   1.426       .  A
C615        C616   1.404       .  A
C615        C622   1.521       .  S
C616        C617   1.398       .  A
C616        H621   1.084       .  S
C617        C618   1.407       .  A
C618        C619   1.514       .  S
C619        F623   1.384       .  S
C619        F624   1.384       .  S
C619        F625   1.383       .  S
C622        F626   1.382       .  S
C622        F627   1.378       .  S
C622        F628   1.385       .  S
C629        C630   1.410       .  A
C629        C634   1.409       .  A
C629        H636   1.083       .  S
C630        C631   1.426       .  A
C631        C632   1.402       .  A
C631        C638   1.521       .  S
C632        C633   1.397       .  A
C632        H637   1.083       .  S
C633        C634   1.410       .  A
C634        C635   1.514       .  S
C635        F639   1.385       .  S
C635        F640   1.383       .  S
C635        F641   1.383       .  S
C638        F642   1.377       .  S
C638        F643   1.381       .  S
C638        F644   1.386       .  S
C645        C646   1.406       .  A
C645        C650   1.414       .  A
C645        H652   1.083       .  S
C646        C647   1.422       .  A
C647        C648   1.416       .  A
C647        C654   1.521       .  S
C648        C649   1.404       .  A
C648        H653   1.083       .  S
C649        C650   1.418       .  A
C650        C651   1.517       .  S
C651        F655   1.385       .  S
C651        F656   1.383       .  S
C651        F657   1.383       .  S
C654        F658   1.384       .  S
C654        F659   1.383       .  S
C654        F660   1.378       .  S
C661        C662   1.407       .  A
C661        C666   1.408       .  A
C661        H668   1.083       .  S
C662        C663   1.418       .  A
C663        C664   1.411       .  A
C663        C670   1.519       .  S
C664        C665   1.404       .  A
C664        H669   1.083       .  S
C665        C666   1.411       .  A
C666        C667   1.517       .  S
C667        F671   1.384       .  S
C667        F672   1.380       .  S
C667        F673   1.383       .  S
C670        F674   1.381       .  S
C670        F675   1.384       .  S
C670        F676   1.384       .  S
C677        C678   1.403       .  A
C677        C682   1.405       .  A
C677        H684   1.084       .  S
C678        C679   1.418       .  A
C679        C680   1.416       .  A
C679        C686   1.515       .  S
C680        C681   1.406       .  A
C680        H685   1.083       .  S
C681        C682   1.415       .  A
C682        C683   1.520       .  S
C683        F687   1.381       .  S
C683        F688   1.383       .  S
C683        F689   1.381       .  S
C686        F690   1.383       .  S
C686        F691   1.383       .  S
C686        F692   1.384       .  S
C693        C694   1.406       .  A
C693        C698   1.414       .  A
C693        H700   1.083       .  S
C694        C695   1.418       .  A
C695        C696   1.399       .  A
C695        C702   1.516       .  S
C696        C697   1.399       .  A
C696        H701   1.084       .  S
C697        C698   1.415       .  A
C698        C699   1.515       .  S
C699        F703   1.384       .  S
C699        F704   1.383       .  S
C699        F705   1.382       .  S
C702        F706   1.383       .  S
C702        F707   1.382       .  S
C702        F708   1.385       .  S
C709        C710   1.398       .  A
C709        C714   1.400       .  A
C709        H716   1.084       .  S
C710        C711   1.414       .  A
C711        C712   1.413       .  A
C711        C718   1.518       .  S
C712        C713   1.412       .  A
C712        H717   1.082       .  S
C713        C714   1.426       .  A
C714        C715   1.523       .  S
C715        F719   1.385       .  S
C715        F720   1.382       .  S
C715        F721   1.384       .  S
C718        F722   1.381       .  S
C718        F723   1.384       .  S
C718        F724   1.384       .  S
C725        C726   1.410       .  A
C725        C730   1.416       .  A
C725        H732   1.083       .  S
C726        C727   1.432       .  A
C727        C728   1.400       .  A
C727        C734   1.525       .  S
C728        C729   1.394       .  A
C728        H733   1.084       .  S
C729        C730   1.413       .  A
C730        C731   1.516       .  S
C731        F735   1.384       .  S
C731        F736   1.384       .  S
C731        F737   1.382       .  S
C734        F738   1.385       .  S
C734        F739   1.382       .  S
C734        F740   1.385       .  S
C741        C742   1.402       .  A
C741        C746   1.406       .  A
C741        H748   1.083       .  S
C742        C743   1.415       .  A
C743        C744   1.403       .  A
C743        C750   1.521       .  S
C744        C745   1.403       .  A
C744        H749   1.083       .  S
C745        C746   1.414       .  A
C746        C747   1.516       .  S
C747        F751   1.385       .  S
C747        F752   1.382       .  S
C747        F753   1.383       .  S
C750        F754   1.380       .  S
C750        F755   1.383       .  S
C750       F2684   1.385       .  S
F756       C2678   1.385       .  S
C757        C758   1.405       .  A
C757        C762   1.411       .  A
C757        H764   1.083       .  S
C758        C759   1.415       .  A
C759        C760   1.402       .  A
C759        C766   1.521       .  S
C760        C761   1.403       .  A
C760        H765   1.082       .  S
C761        C762   1.415       .  A
C762        C763   1.516       .  S
C763        F767   1.385       .  S
C763        F768   1.383       .  S
C763        F769   1.383       .  S
C766        F771   1.380       .  S
C766       F2698   1.383       .  S
C766       F2700   1.385       .  S
F770       C2694   1.382       .  S
F772       C2694   1.385   1_455  S
C773        C774   1.411       .  A
C773        C778   1.402       .  A
C773        H780   1.081       .  S
C774        C775   1.425       .  A
C775        C776   1.416       .  A
C775        C782   1.517       .  S
C776        C777   1.404       .  A
C776        H781   1.083       .  S
C777        C778   1.413       .  A
C778        C779   1.522       .  S
C779        F783   1.385       .  S
C779        F784   1.383       .  S
C779        F785   1.381       .  S
C782        F786   1.383       .  S
C782        F787   1.383       .  S
C782        F788   1.385       .  S
C789        C790   1.408       .  A
C789        C794   1.400       .  A
C789        H796   1.082       .  S
C790        C791   1.422       .  A
C791        C792   1.413       .  A
C791        C798   1.518       .  S
C792        C793   1.404       .  A
C792        H797   1.083       .  S
C793        C794   1.412       .  A
C794        C795   1.521       .  S
C795        F799   1.384       .  S
C795        F800   1.382       .  S
C795        F801   1.381       .  S
C798        F802   1.384       .  S
C798        F803   1.381       .  S
C798        F804   1.385       .  S
C805        C806   1.404       .  A
C805        C810   1.402       .  A
C805        H812   1.083       .  S
C806        C807   1.418       .  A
C807        C808   1.410       .  A
C807        C814   1.517       .  S
C808        C809   1.402       .  A
C808        H813   1.083       .  S
C809        C810   1.413       .  A
C810        C811   1.520       .  S
C811        F815   1.384       .  S
C811        F816   1.382       .  S
C811        F817   1.381       .  S
C814        F818   1.383       .  S
C814        F819   1.382       .  S
C814        F820   1.385       .  S
C821        C822   1.402       .  A
C821        C826   1.407       .  A
C821        H828   1.083       .  S
C822        C823   1.416       .  A
C823        C824   1.405       .  A
C823        C830   1.519       .  S
C824        C825   1.403       .  A
C824        H829   1.083       .  S
C825        C826   1.416       .  A
C826        C827   1.517       .  S
C827        F831   1.385       .  S
C827        F832   1.382       .  S
C827        F833   1.383       .  S
C830        F834   1.380       .  S
C830        F835   1.383       .  S
C830        F836   1.384       .  S
C837        C838   1.405       .  A
C837        C842   1.414       .  A
C837        H844   1.083       .  S
C838        C839   1.425       .  A
C839        C840   1.412       .  A
C839        C846   1.524       .  S
C840        C841   1.402       .  A
C840        H845   1.083       .  S
C841        C842   1.418       .  A
C842        C843   1.516       .  S
C843        F847   1.385       .  S
C843        F848   1.383       .  S
C843        F849   1.383       .  S
C846        F850   1.384       .  S
C846        F851   1.383       .  S
C846        F852   1.379       .  S
C853        C854   1.404       .  A
C853        C858   1.415       .  A
C853        H860   1.083       .  S
C854        C855   1.417       .  A
C855        C856   1.408       .  A
C855        C862   1.519       .  S
C856        C857   1.405       .  A
C856        H861   1.083       .  S
C857        C858   1.420       .  A
C858        C859   1.517       .  S
C859        F863   1.384       .  S
C859        F864   1.381       .  S
C859        F865   1.383       .  S
C862        F866   1.379       .  S
C862        F867   1.383       .  S
C862        F868   1.385       .  S
C869        C870   1.402       .  A
C869        C874   1.403       .  A
C869        H876   1.084       .  S
C870        C871   1.418       .  A
C871        C872   1.401       .  A
C871        C878   1.516       .  S
C872        C873   1.398       .  A
C872        H877   1.085       .  S
C873        C874   1.415       .  A
C874        C875   1.519       .  S
C875        F879   1.385       .  S
C875        F880   1.380       .  S
C875        F881   1.383       .  S
C878        F882   1.383       .  S
C878        F883   1.381       .  S
C878        F884   1.384       .  S
C885        C886   1.403       .  A
C885        C890   1.411       .  A
C885        H892   1.083       .  S
C886        C887   1.415       .  A
C887        C888   1.404       .  A
C887        C894   1.520       .  S
C888        C889   1.404       .  A
C888        H893   1.083       .  S
C889        C890   1.419       .  A
C890        C891   1.517       .  S
C891        F895   1.385       .  S
C891        F896   1.383       .  S
C891        F897   1.383       .  S
C894        F898   1.382       .  S
C894        F899   1.382       .  S
C894        F900   1.384       .  S
C901        C902   1.407       .  A
C901        C906   1.418       .  A
C901        H908   1.084       .  S
C902        C903   1.442       .  A
C903        C904   1.404       .  A
C903        C910   1.528       .  S
C904        C905   1.394       .  A
C904        H909   1.083       .  S
C905        C906   1.425       .  A
C906        C907   1.517       .  S
C907        F911   1.384       .  S
C907        F912   1.381       .  S
C907        F913   1.383       .  S
C910        F914   1.384       .  S
C910        F915   1.382       .  S
C910        F916   1.386       .  S
C917        C918   1.411       .  A
C917        C922   1.421       .  A
C917        H924   1.083       .  S
C918        C919   1.414       .  A
C919        C920   1.405       .  A
C919        C926   1.523       .  S
C920        C921   1.413       .  A
C920        H925   1.080       .  S
C921        C922   1.420       .  A
C922        C923   1.515       .  S
C923        F927   1.385       .  S
C923        F928   1.383       .  S
C923        F929   1.383       .  S
C926        F930   1.381       .  S
C926        F931   1.383       .  S
C926        F932   1.385       .  S
C933        C934   1.408       .  A
C933        C938   1.412       .  A
C933        H940   1.082       .  S
C934        C935   1.426       .  A
C935        C936   1.401       .  A
C935        C942   1.523       .  S
C936        C937   1.399       .  A
C936        H941   1.084       .  S
C937        C938   1.417       .  A
C938        C939   1.518       .  S
C939        F943   1.385       .  S
C939        F944   1.380       .  S
C939        F945   1.383       .  S
C942        F946   1.382       .  S
C942        F947   1.384       .  S
C942        F948   1.386       .  S
C949        C950   1.402       .  A
C949        C954   1.412       .  A
C949        H956   1.083       .  S
C950        C951   1.411       .  A
C951        C952   1.401       .  A
C951        C958   1.521       .  S
C952        C953   1.410       .  A
C952        H957   1.082       .  S
C953        C954   1.424       .  A
C954        C955   1.517       .  S
C955        F959   1.385       .  S
C955        F960   1.384       .  S
C955        F961   1.382       .  S
C958        F962   1.383       .  S
C958        F963   1.381       .  S
C958        F964   1.385       .  S
N965        C970   1.353       .  A
N965        C969   1.351       .  A
N965        H997   1.039       .  S
N966        C973   1.350       .  A
N966        C974   1.351       .  A
N967        C972   1.351       .  A
N967        C971   1.353       .  A
N967        H998   1.040       .  S
N968        C975   1.354       .  A
N968        C976   1.352       .  A
C969        C977   1.386       .  A
C969        C985   1.411       .  A
C970        C986   1.416       .  A
C970        C978   1.388       .  A
C971        C979   1.386       .  A
C971        C988   1.412       .  A
C972        C987   1.415       .  A
C972        C980   1.388       .  A
C973        C985   1.411       .  A
C973        C981   1.386       .  A
C974        C988   1.411       .  A
C974        C982   1.386       .  A
C975        C983   1.385       .  A
C975        C986   1.419       .  A
C976        C984   1.387       .  A
C976        C987   1.421       .  A
C977        C978   1.374       .  A
C977        H989   1.082       .  S
C978        H990   1.082       .  S
C979        C980   1.375       .  A
C979        H991   1.083       .  S
C980        H992   1.082       .  S
C981        C982   1.377       .  A
C981        H993   1.082       .  S
C982        H994   1.082       .  S
C983        C984   1.379       .  A
C983        H995   1.082       .  S
C984        H996   1.082       .  S
C985       C1914   1.483       .  S
C986       C1882   1.498       .  S
C987       C1869   1.494       .  S
C988       C1901   1.491       .  S
N999       C1004   1.355       .  A
N999       C1003   1.350       .  A
N999       H1031   1.055       .  S
N1000      C1007   1.355       .  A
N1000      C1008   1.357       .  A
N1001      C1006   1.352       .  A
N1001      C1005   1.352       .  A
N1001      H1032   1.053       .  S
N1002      C1009   1.348       .  A
N1002      C1010   1.347       .  A
C1003      C1011   1.389       .  A
C1003      C1019   1.417       .  A
C1004      C1020   1.418       .  A
C1004      C1012   1.387       .  A
C1005      C1013   1.386       .  A
C1005      C1022   1.414       .  A
C1006      C1021   1.416       .  A
C1006      C1014   1.388       .  A
C1007      C1019   1.424       .  A
C1007      C1015   1.387       .  A
C1008      C1022   1.425       .  A
C1008      C1016   1.386       .  A
C1009      C1017   1.386       .  A
C1009      C1020   1.408       .  A
C1010      C1018   1.386       .  A
C1010      C1021   1.408       .  A
C1011      C1012   1.375       .  A
C1011      H1023   1.083       .  S
C1012      H1024   1.082       .  S
C1013      C1014   1.377       .  A
C1013      H1025   1.082       .  S
C1014      H1026   1.082       .  S
C1015      C1016   1.385       .  A
C1015      H1027   1.082       .  S
C1016      H1028   1.082       .  S
C1017      C1018   1.376       .  A
C1017      H1029   1.082       .  S
C1018      H1030   1.082       .  S
C1019      C1821   1.499       .  S
C1020      C1850   1.491       .  S
C1021      C1834   1.487       .  S
C1022      C1802   1.510       .  S
N1033      N1034   1.324       .  A
N1033      N1039   1.314       .  A
N1034      C1041   1.360       .  A
N1035      N1037   1.314       .  A
N1035      N1036   1.314       .  A
N1035     Mn1051   2.181       .  S
N1036      C1042   1.346       .  A
N1037      N1038   1.326       .  A
N1037     Mn1062   2.223       .  S
N1038      C1042   1.361       .  A
N1039      N1040   1.313       .  A
N1040      C1041   1.349       .  A
C1041      C1917   1.495       .  S
C1042      C1898   1.494       .  S
N1043      N1049   1.315       .  A
N1043      N1044   1.325       .  A
N1043     Mn1073   2.214       .  S
N1044      C1052   1.356       .  A
N1045      N1046   1.317       .  A
N1045      N1047   1.314       .  A
N1046      C1053   1.350       .  A
N1047      N1048   1.326       .  A
N1048      C1053   1.358       .  A
N1049      N1050   1.317       .  A
N1049     Mn1051   2.188       .  S
N1050      C1052   1.348       .  A
Mn1051    Cl1075   2.514       .  S
C1052      C1837   1.473       .  S
C1053      C1853   1.487       .  S
N1054      N1055   1.328       .  A
N1054      N1060   1.315       .  A
N1054     Mn1062   2.230       .  S
N1055      C1063   1.361       .  A
N1056      N1058   1.314       .  A
N1056      N1057   1.311       .  A
N1057      C1064   1.348       .  A
N1058      N1059   1.328       .  A
N1059      C1064   1.361       .  A
N1060      N1061   1.314       .  A
N1060     Mn1074   2.193       .  S
N1061      C1063   1.351       .  A
Mn1062    Cl1075   2.582       .  S
C1063      C1738   1.503       .  S
C1064      C1754   1.494       .  S
N1065      N1066   1.322       .  A
N1065      N1071   1.315       .  A
N1066      C1076   1.354       .  A
N1067      N1068   1.314       .  A
N1067      N1069   1.314       .  A
N1067     Mn1074   2.182       .  S
N1068      C1077   1.349       .  A
N1069      N1070   1.322       .  A
N1069     Mn1073   2.194       .  S
N1070      C1077   1.353       .  A
N1071      N1072   1.316       .  A
N1072      C1076   1.350       .  A
Mn1073    Cl1075   2.579       .  S
Mn1074    Cl1075   2.513       .  S
C1076      C1789   1.473       .  S
C1077      C1770   1.471       .  S
N1078      C1083   1.355       .  A
N1078      C1082   1.351       .  A
N1078      H1110   1.039       .  S
N1079      C1086   1.349       .  A
N1079      C1087   1.353       .  A
N1080      C1085   1.351       .  A
N1080      C1084   1.351       .  A
N1080      H1111   1.039       .  S
N1081      C1088   1.346       .  A
N1081      C1089   1.344       .  A
C1082      C1090   1.387       .  A
C1082      C1098   1.414       .  A
C1083      C1099   1.417       .  A
C1083      C1091   1.387       .  A
C1084      C1092   1.385       .  A
C1084      C1101   1.410       .  A
C1085      C1100   1.414       .  A
C1085      C1093   1.388       .  A
C1086      C1098   1.414       .  A
C1086      C1094   1.388       .  A
C1087      C1101   1.413       .  A
C1087      C1095   1.385       .  A
C1088      C1096   1.386       .  A
C1088      C1099   1.404       .  A
C1089      C1097   1.387       .  A
C1089      C1100   1.405       .  A
C1090      C1091   1.377       .  A
C1090      H1102   1.082       .  S
C1091      H1103   1.082       .  S
C1092      C1093   1.377       .  A
C1092      H1104   1.082       .  S
C1093      H1105   1.082       .  S
C1094      C1095   1.377       .  A
C1094      H1106   1.082       .  S
C1095      H1107   1.082       .  S
C1096      C1097   1.375       .  A
C1096      H1108   1.082       .  S
C1097      H1109   1.082       .  S
C1098      C1757   1.484       .  S
C1099      C1722   1.485       .  S
C1100      C1706   1.475       .  S
C1101      C1741   1.493       .  S
N1112      C1117   1.354       .  A
N1112      C1116   1.352       .  A
N1112      H1144   1.039       .  S
N1113      C1120   1.352       .  A
N1113      C1121   1.352       .  A
N1114      C1119   1.352       .  A
N1114      C1118   1.349       .  A
N1114      H1145   1.040       .  S
N1115      C1122   1.344       .  A
N1115      C1123   1.345       .  A
C1116      C1124   1.386       .  A
C1116      C1132   1.415       .  A
C1117      C1133   1.418       .  A
C1117      C1125   1.388       .  A
C1118      C1126   1.386       .  A
C1118      C1135   1.410       .  A
C1119      C1134   1.414       .  A
C1119      C1127   1.388       .  A
C1120      C1132   1.414       .  A
C1120      C1128   1.386       .  A
C1121      C1135   1.413       .  A
C1121      C1129   1.386       .  A
C1122      C1130   1.387       .  A
C1122      C1133   1.404       .  A
C1123      C1131   1.385       .  A
C1123      C1134   1.402       .  A
C1124      C1125   1.378       .  A
C1124      H1136   1.082       .  S
C1125      H1137   1.082       .  S
C1126      C1127   1.376       .  A
C1126      H1138   1.082       .  S
C1127      H1139   1.082       .  S
C1128      C1129   1.379       .  A
C1128      H1140   1.082       .  S
C1129      H1141   1.082       .  S
C1130      C1131   1.375       .  A
C1130      H1142   1.082       .  S
C1131      H1143   1.082       .  S
C1132      C1693   1.492       .  S
C1133      C1786   1.481       .  S
C1134      C1773   1.479       .  S
C1135      C1674   1.489       .  S
N1146      N1147   1.311       .  A
N1146      N1152   1.319       .  A
N1146     Mn3103   2.186       .  S
N1147      C1154   1.343       .  A
N1148      N1150   1.320       .  A
N1148      N1149   1.318       .  A
N1148     Mn1164   2.203   1_565  S
N1149      C1155   1.346       .  A
N1150      N1151   1.330       .  A
N1150     Mn3103   2.246       .  S
N1151      C1155   1.362       .  A
N1152      N1153   1.335       .  A
N1152     Mn1164   2.259   1_565  S
N1153      C1154   1.368       .  A
C1154      C1885   1.500       .  S
C1155      C1613   1.487       .  S
N1156      N1162   1.318       .  A
N1156      N1157   1.328       .  A
N1156     Mn3114   2.225       .  S
N1157      C1165   1.360       .  A
N1158      N1159   1.336       .  A
N1158      N1160   1.315       .  A
N1159      C1166   1.374       .  A
N1160      N1161   1.305       .  A
N1160     Mn3114   2.149       .  S
N1161      C1166   1.333       .  A
N1162      N1163   1.314       .  A
N1163      C1165   1.345       .  A
Mn1164    Cl3116   2.579       .  S
C1165      C1642   1.481       .  S
C1166      C1866   1.503       .  S
N1167      N1168   1.328       .  A
N1167      N1173   1.319       .  A
N1167     Mn1175   2.225       .  S
N1168      C1176   1.359       .  A
N1169      N1171   1.319       .  A
N1169      N1170   1.330       .  A
N1169     Mn1187   2.238   1_565  S
N1170      C1177   1.362       .  A
N1171      N1172   1.314       .  A
N1171     Mn1175   2.190       .  S
N1172      C1177   1.343       .  A
N1173      N1174   1.318       .  A
N1173     Mn1187   2.208   1_565  S
N1174      C1176   1.348       .  A
Mn1175     N3074   2.175   1_455  S
Mn1175     N3078   2.241   1_455  S
Mn1175    Cl1188   2.535   1_565  S
C1176      C1629   1.482       .  S
C1177      C1818   1.480       .  S
N1178      N1179   1.313       .  A
N1178      N1184   1.318       .  A
N1178     Mn1186   2.176       .  S
N1179      C1189   1.340       .  A
N1180      N1181   1.316       .  A
N1180      N1182   1.318       .  A
N1181      C1190   1.346       .  A
N1182      N1183   1.329       .  A
N1182     Mn1186   2.231       .  S
N1183      C1190   1.360       .  A
N1184      N1185   1.333       .  A
N1185      C1189   1.366       .  A
Mn1186     N3084   2.224   1_455  S
Mn1186     N3088   2.171   1_455  S
Mn1187    Cl1188   2.565       .  S
Cl1188    Mn3092   2.572   1_455  S
C1189      C1805   1.485       .  S
C1190      C1658   1.483       .  S
N1191      N1192   1.327       .  A
N1191      N1197   1.314       .  A
N1191     Mn3148   2.214       .  S
N1192      C1199   1.357       .  A
N1193      N1195   1.314       .  A
N1193      N1194   1.311       .  A
N1193     Mn1209   2.172       .  S
N1194      C1200   1.346       .  A
N1195      N1196   1.327       .  A
N1195     Mn1220   2.211       .  S
N1196      C1200   1.357       .  A
N1197      N1198   1.312       .  A
N1197     Mn3137   2.173       .  S
N1198      C1199   1.346       .  A
C1199      C1597   1.472       .  S
C1200      C1581   1.469       .  S
N1201      N1207   1.314       .  A
N1201      N1202   1.324       .  A
N1201     Mn1231   2.221       .  S
N1202      C1210   1.361       .  A
N1203      N1204   1.312       .  A
N1203      N1205   1.314       .  A
N1203     Mn3137   2.174       .  S
N1204      C1211   1.343       .  A
N1205      N1206   1.330       .  A
N1205     Mn3159   2.245   1_556  S
N1206      C1211   1.366       .  A
N1207      N1208   1.315       .  A
N1207     Mn1209   2.181       .  S
N1208      C1210   1.347       .  A
Mn1209     N3125   2.177   1_455  S
Mn1209     N3131   2.179   1_455  S
Mn1209    Cl1233   2.512       .  S
C1210      C1546   1.495       .  S
C1211      C1565   1.501       .  S
N1212      N1213   1.321       .  A
N1212      N1218   1.316       .  A
N1212     Mn1220   2.190   1_554  S
N1213      C1221   1.350       .  A
N1214      N1216   1.316       .  A
N1214      N1215   1.315       .  A
N1214     Mn3160   2.188       .  S
N1215      C1222   1.348       .  A
N1216      N1217   1.322       .  A
N1216     Mn3148   2.199   1_554  S
N1217      C1222   1.353       .  A
N1218      N1219   1.317       .  A
N1218     Mn1232   2.200       .  S
N1219      C1221   1.350       .  A
Mn1220     N3119   2.212   1_455  S
Mn1220     N3144   2.198   1_456  S
Mn1220    Cl1233   2.580       .  S
C1221      C1485   1.462       .  S
C1222      C1498   1.464       .  S
N1223      N1224   1.328       .  A
N1223      N1229   1.317       .  A
N1223     Mn3159   2.242       .  S
N1224      C1234   1.361       .  A
N1225      N1226   1.317       .  A
N1225      N1227   1.317       .  A
N1225     Mn1232   2.198       .  S
N1226      C1235   1.349       .  A
N1227      N1228   1.328       .  A
N1227     Mn1231   2.236   1_554  S
N1228      C1235   1.360       .  A
N1229      N1230   1.320       .  A
N1229     Mn3160   2.207       .  S
N1230      C1234   1.353       .  A
Mn1231     N3133   2.240   1_455  S
Mn1231     N3151   2.222   1_456  S
Mn1231    Cl1233   2.584       .  S
Mn1232     N3142   2.194   1_455  S
Mn1232     N3157   2.194   1_455  S
Mn1232    Cl1233   2.514   1_554  S
C1234      C1530   1.505       .  S
C1235      C1514   1.489       .  S
N1236      C1241   1.354       .  A
N1236      C1240   1.355       .  A
N1236      H1268   1.028       .  S
N1237      C1244   1.353       .  A
N1237      C1245   1.351       .  A
N1238      C1243   1.359       .  A
N1238      C1242   1.357       .  A
N1238      H1269   1.031       .  S
N1239      C1246   1.353       .  A
N1239      C1247   1.353       .  A
C1240      C1248   1.388       .  A
C1240      C1256   1.422       .  A
C1241      C1257   1.421       .  A
C1241      C1249   1.388       .  A
C1242      C1250   1.390       .  A
C1242      C1259   1.429       .  A
C1243      C1258   1.424       .  A
C1243      C1251   1.386       .  A
C1244      C1256   1.418       .  A
C1244      C1252   1.386       .  A
C1245      C1259   1.420       .  A
C1245      C1253   1.388       .  A
C1246      C1254   1.387       .  A
C1246      C1257   1.422       .  A
C1247      C1255   1.386       .  A
C1247      C1258   1.421       .  A
C1248      C1249   1.371       .  A
C1248      H1260   1.082       .  S
C1249      H1261   1.082       .  S
C1250      C1251   1.372       .  A
C1250      H1262   1.082       .  S
C1251      H1263   1.082       .  S
C1252      C1253   1.372       .  A
C1252      H1264   1.082       .  S
C1253      H1265   1.082       .  S
C1254      C1255   1.375       .  A
C1254      H1266   1.082       .  S
C1255      H1267   1.082       .  S
C1256      C1562   1.494       .  S
C1257      C1466   1.492       .  S
C1258      C1450   1.502       .  S
C1259      C1549   1.494       .  S
N1270      C1275   1.348       .  A
N1270      C1274   1.348       .  A
N1270      H1302   1.045       .  S
N1271      C1278   1.351       .  A
N1271      C1279   1.344       .  A
N1272      C1277   1.356       .  A
N1272      C1276   1.358       .  A
N1272      H1303   1.041       .  S
N1273      C1280   1.352       .  A
N1273      C1281   1.342       .  A
C1274      C1282   1.385       .  A
C1274      C1290   1.395       .  A
C1275      C1291   1.396       .  A
C1275      C1283   1.387       .  A
C1276      C1284   1.386       .  A
C1276      C1293   1.422       .  A
C1277      C1292   1.421       .  A
C1277      C1285   1.387       .  A
C1278      C1290   1.415       .  A
C1278      C1286   1.385       .  A
C1279      C1293   1.413       .  A
C1279      C1287   1.389       .  A
C1280      C1288   1.384       .  A
C1280      C1291   1.414       .  A
C1281      C1289   1.390       .  A
C1281      C1292   1.412       .  A
C1282      C1283   1.365       .  A
C1282      H1294   1.083       .  S
C1283      H1295   1.083       .  S
C1284      C1285   1.380       .  A
C1284      H1296   1.082       .  S
C1285      H1297   1.082       .  S
C1286      C1287   1.379       .  A
C1286      H1298   1.082       .  S
C1287      H1299   1.082       .  S
C1288      C1289   1.378       .  A
C1288      H1300   1.082       .  S
C1289      H1301   1.082       .  S
C1290      C1578   1.494       .  S
C1291      C1594   1.496       .  S
C1292      C1434   1.484       .  S
C1293      C1421   1.494       .  S
N1304      N1305   1.331       .  A
N1304      N1310   1.312       .  A
N1304     Mn1333   2.241   1_565  S
N1305      C1312   1.367       .  A
N1306      N1308   1.312       .  A
N1306      N1307   1.314       .  A
N1307      C1313   1.346       .  A
N1308      N1309   1.325       .  A
N1309      C1313   1.362       .  A
N1310      N1311   1.309       .  A
N1310     Mn1322   2.162   1_565  S
N1311      C1312   1.341       .  A
C1312      C1690   1.498       .  S
C1313      C1677   1.494       .  S
N1314      N1320   1.312       .  A
N1314      N1315   1.323       .  A
N1315      C1323   1.355       .  A
N1316      N1317   1.314       .  A
N1316      N1318   1.313       .  A
N1316     Mn3250   2.171   1_565  S
N1317      C1324   1.348       .  A
N1318      N1319   1.323       .  A
N1318     Mn1344   2.204   1_565  S
N1319      C1324   1.355       .  A
N1320      N1321   1.313       .  A
N1320     Mn2286   2.159       .  S
N1321      C1323   1.346       .  A
Mn1322     N3244   2.173   1_445  S
Mn1322     N2284   2.168   1_455  S
Mn1322    Cl1346   2.527       .  S
C1323      C1709   1.466       .  S
C1324      C1725   1.470       .  S
N1325      N1326   1.317       .  A
N1325      N1331   1.318       .  A
N1326      C1334   1.349       .  A
N1327      N1329   1.321       .  A
N1327      N1328   1.326       .  A
N1327     Mn1345   2.237   1_565  S
N1328      C1335   1.358       .  A
N1329      N1330   1.320       .  A
N1329     Mn1333   2.205   1_565  S
N1330      C1335   1.350       .  A
N1331      N1332   1.324       .  A
N1332      C1334   1.357       .  A
Mn1333    Cl1346   2.557       .  S
C1334      C1418   1.477       .  S
C1335      C1453   1.491       .  S
N1336      N1337   1.319       .  A
N1336      N1342   1.317       .  A
N1336     Mn1344   2.203   1_565  S
N1337      C1347   1.352       .  A
N1338      N1339   1.322       .  A
N1338      N1340   1.315       .  A
N1338     Mn2309   2.213       .  S
N1339      C1348   1.356       .  A
N1340      N1341   1.315       .  A
N1341      C1348   1.350       .  A
N1342      N1343   1.322       .  A
N1342     Mn3273   2.221   1_565  S
N1343      C1347   1.357       .  A
Mn1344    Cl3274   2.553       .  S
Mn1345     N2302   2.225   1_455  S
Mn1345     N3270   2.241   1_445  S
Mn1345    Cl1346   2.553       .  S
Cl1346    Mn3272   2.552   1_455  S
C1347      C1469   1.479       .  S
C1348      C1437   1.469       .  S
N1349      C1354   1.347       .  A
N1349      C1353   1.345       .  A
N1349      H1381   1.041       .  S
N1350      C1357   1.347       .  A
N1350      C1358   1.347       .  A
N1351      C1356   1.356       .  A
N1351      C1355   1.357       .  A
N1351      H1382   1.042       .  S
N1352      C1359   1.351       .  A
N1352      C1360   1.347       .  A
C1353      C1361   1.385       .  A
C1353      C1369   1.402       .  A
C1354      C1370   1.409       .  A
C1354      C1362   1.388       .  A
C1355      C1363   1.386       .  A
C1355      C1372   1.422       .  A
C1356      C1371   1.421       .  A
C1356      C1364   1.387       .  A
C1357      C1369   1.409       .  A
C1357      C1365   1.387       .  A
C1358      C1372   1.403       .  A
C1358      C1366   1.386       .  A
C1359      C1367   1.386       .  A
C1359      C1370   1.415       .  A
C1360      C1368   1.386       .  A
C1360      C1371   1.408       .  A
C1361      C1362   1.379       .  A
C1361      H1373   1.082       .  S
C1362      H1374   1.082       .  S
C1363      C1364   1.383       .  A
C1363      H1375   1.082       .  S
C1364      H1376   1.082       .  S
C1365      C1366   1.373       .  A
C1365      H1377   1.082       .  S
C1366      H1378   1.082       .  S
C1367      C1368   1.376       .  A
C1367      H1379   1.082       .  S
C1368      H1380   1.082       .  S
C1369      C1501   1.473       .  S
C1370      C1482   1.490       .  S
C1371      C1661   1.493       .  S
C1372      C1645   1.492       .  S
N1383      C1388   1.356       .  A
N1383      C1387   1.356       .  A
N1383      H1415   1.040       .  S
N1384      C1391   1.353       .  A
N1384      C1392   1.354       .  A
N1385      C1390   1.354       .  A
N1385      C1389   1.355       .  A
N1385      H1416   1.038       .  S
N1386      C1393   1.353       .  A
N1386      C1394   1.353       .  A
C1387      C1395   1.388       .  A
C1387      C1403   1.423       .  A
C1388      C1404   1.421       .  A
C1388      C1396   1.387       .  A
C1389      C1397   1.386       .  A
C1389      C1406   1.417       .  A
C1390      C1405   1.420       .  A
C1390      C1398   1.388       .  A
C1391      C1403   1.416       .  A
C1391      C1399   1.387       .  A
C1392      C1406   1.417       .  A
C1392      C1400   1.386       .  A
C1393      C1401   1.386       .  A
C1393      C1404   1.416       .  A
C1394      C1402   1.386       .  A
C1394      C1405   1.415       .  A
C1395      C1396   1.383       .  A
C1395      H1407   1.082       .  S
C1396      H1408   1.082       .  S
C1397      C1398   1.379       .  A
C1397      H1409   1.082       .  S
C1398      H1410   1.082       .  S
C1399      C1400   1.374       .  A
C1399      H1411   1.082       .  S
C1400      H1412   1.082       .  S
C1401      C1402   1.374       .  A
C1401      H1413   1.082       .  S
C1402      H1414   1.082       .  S
C1403      C1610   1.501       .  S
C1404      C1626   1.503       .  S
C1405      C1517   1.497       .  S
C1406      C1533   1.498       .  S
C1417      C1418   1.403       .  A
C1417      C1422   1.407       .  A
C1417      H1424   1.084       .  S
C1418      C1419   1.411       .  A
C1419      C1420   1.409       .  A
C1419      C1426   1.515       .  S
C1420      C1421   1.407       .  A
C1420      H1425   1.083       .  S
C1421      C1422   1.419       .  A
C1422      C1423   1.520       .  S
C1423      F1427   1.385       .  S
C1423      F1428   1.383       .  S
C1423      F1429   1.380       .  S
C1426      F1430   1.383       .  S
C1426      F1431   1.383       .  S
C1426      F1432   1.384       .  S
C1433      C1434   1.406       .  A
C1433      C1438   1.407       .  A
C1433      H1440   1.083       .  S
C1434      C1435   1.415       .  A
C1435      C1436   1.402       .  A
C1435      C1442   1.518       .  S
C1436      C1437   1.401       .  A
C1436      H1441   1.084       .  S
C1437      C1438   1.410       .  A
C1438      C1439   1.515       .  S
C1439      F1443   1.384       .  S
C1439      F1444   1.383       .  S
C1439      F1445   1.383       .  S
C1442      F1446   1.379       .  S
C1442      F1447   1.383       .  S
C1442      F1448   1.384       .  S
C1449      C1450   1.404       .  A
C1449      C1454   1.411       .  A
C1449      H1456   1.083       .  S
C1450      C1451   1.417       .  A
C1451      C1452   1.414       .  A
C1451      C1458   1.519       .  S
C1452      C1453   1.407       .  A
C1452      H1457   1.083       .  S
C1453      C1454   1.418       .  A
C1454      C1455   1.519       .  S
C1455      F1459   1.384       .  S
C1455      F1460   1.383       .  S
C1455      F1461   1.383       .  S
C1458      F1462   1.384   1_565  S
C1458      F1463   1.384       .  S
C1458      F1464   1.381       .  S
C1465      C1466   1.404       .  A
C1465      C1470   1.409       .  A
C1465      H1472   1.083       .  S
C1466      C1467   1.416       .  A
C1467      C1468   1.407       .  A
C1467      C1474   1.520       .  S
C1468      C1469   1.404       .  A
C1468      H1473   1.083       .  S
C1469      C1470   1.415       .  A
C1470      C1471   1.518       .  S
C1471      F1475   1.385       .  S
C1471      F1476   1.383       .  S
C1471      F1477   1.382       .  S
C1474      F1478   1.381       .  S
C1474      F1479   1.382       .  S
C1474      F1480   1.385       .  S
C1481      C1482   1.407       .  A
C1481      C1486   1.402       .  A
C1481      H1488   1.083       .  S
C1482      C1483   1.420       .  A
C1483      C1484   1.403       .  A
C1483      C1490   1.518       .  S
C1484      C1485   1.399       .  A
C1484      H1489   1.085       .  S
C1485      C1486   1.408       .  A
C1486      C1487   1.517       .  S
C1487      F1491   1.384       .  S
C1487      F1492   1.378       .  S
C1487      F1493   1.383       .  S
C1490      F1494   1.383       .  S
C1490      F1495   1.382       .  S
C1490      F1496   1.384       .  S
C1497      C1498   1.400       .  A
C1497      C1502   1.400       .  A
C1497      H1504   1.084       .  S
C1498      C1499   1.415       .  A
C1499      C1500   1.404       .  A
C1499      C1506   1.517       .  S
C1500      C1501   1.401       .  A
C1500      H1505   1.083       .  S
C1501      C1502   1.414       .  A
C1502      C1503   1.521       .  S
C1503      F1507   1.385       .  S
C1503      F1508   1.383       .  S
C1503      F1509   1.382       .  S
C1506      F1510   1.383       .  S
C1506      F1511   1.382       .  S
C1506      F1512   1.385       .  S
C1513      C1514   1.405       .  A
C1513      C1518   1.415       .  A
C1513      H1520   1.083       .  S
C1514      C1515   1.419       .  A
C1515      C1516   1.403       .  A
C1515      C1522   1.514       .  S
C1516      C1517   1.399       .  A
C1516      H1521   1.084       .  S
C1517      C1518   1.420       .  A
C1518      C1519   1.518       .  S
C1519      F1523   1.385       .  S
C1519      F1524   1.383       .  S
C1519      F1525   1.381       .  S
C1522      F1526   1.383       .  S
C1522      F1527   1.382       .  S
C1522      F1528   1.385       .  S
C1529      C1530   1.410       .  A
C1529      C1534   1.410       .  A
C1529      H1536   1.083       .  S
C1530      C1531   1.425       .  A
C1531      C1532   1.416       .  A
C1531      C1538   1.516       .  S
C1532      C1533   1.403       .  A
C1532      H1537   1.083       .  S
C1533      C1534   1.413       .  A
C1534      C1535   1.519       .  S
C1535      F1539   1.382       .  S
C1535      F1540   1.383       .  S
C1535      F1541   1.382       .  S
C1538      F1542   1.382       .  S
C1538      F1543   1.383       .  S
C1538      F1544   1.385       .  S
C1545      C1546   1.408       .  A
C1545      C1550   1.409       .  A
C1545      H1552   1.082       .  S
C1546      C1547   1.430       .  A
C1547      C1548   1.405       .  A
C1547      C1554   1.524       .  S
C1548      C1549   1.399       .  A
C1548      H1553   1.083       .  S
C1549      C1550   1.414       .  A
C1550      C1551   1.519       .  S
C1551      F1555   1.385       .  S
C1551      F1556   1.383       .  S
C1551      F1557   1.381       .  S
C1554      F1558   1.383       .  S
C1554      F1559   1.381       .  S
C1554      F1560   1.385       .  S
C1561      C1562   1.394       .  A
C1561      C1566   1.404       .  A
C1561      H1568   1.083       .  S
C1562      C1563   1.414       .  A
C1563      C1564   1.413       .  A
C1563      C1570   1.517       .  S
C1564      C1565   1.409       .  A
C1564      H1569   1.082       .  S
C1565      C1566   1.435       .  A
C1566      C1567   1.525       .  S
C1567      F1571   1.385       .  S
C1567      F1572   1.379       .  S
C1567      F1573   1.383       .  S
C1570      F1574   1.382       .  S
C1570      F1575   1.383       .  S
C1570      F1576   1.384       .  S
C1577      C1578   1.409       .  A
C1577      C1582   1.407       .  A
C1577      H1584   1.083       .  S
C1578      C1579   1.424       .  A
C1579      C1580   1.402       .  A
C1579      C1586   1.522       .  S
C1580      C1581   1.399       .  A
C1580      H1585   1.084       .  S
C1581      C1582   1.409       .  A
C1582      C1583   1.515       .  S
C1583      F1587   1.384       .  S
C1583      F1588   1.383       .  S
C1583      F1589   1.383       .  S
C1586      F1590   1.382       .  S
C1586      F1591   1.378       .  S
C1586      F1592   1.385       .  S
C1593      C1594   1.410       .  A
C1593      C1598   1.408       .  A
C1593      H1600   1.083       .  S
C1594      C1595   1.424       .  A
C1595      C1596   1.403       .  A
C1595      C1602   1.521       .  S
C1596      C1597   1.399       .  A
C1596      H1601   1.084       .  S
C1597      C1598   1.409       .  A
C1598      C1599   1.515       .  S
C1599      F1603   1.384       .  S
C1599      F1604   1.383       .  S
C1599      F1605   1.383       .  S
C1602      F1606   1.378       .  S
C1602      F1607   1.382       .  S
C1602      F1608   1.385       .  S
C1609      C1610   1.404       .  A
C1609      C1614   1.413       .  A
C1609      H1616   1.083       .  S
C1610      C1611   1.419       .  A
C1611      C1612   1.413       .  A
C1611      C1618   1.520       .  S
C1612      C1613   1.404       .  A
C1612      H1617   1.083       .  S
C1613      C1614   1.418       .  A
C1614      C1615   1.517       .  S
C1615      F1619   1.385       .  S
C1615      F1620   1.383       .  S
C1615      F1621   1.382       .  S
C1618      F1622   1.384       .  S
C1618      F1623   1.384       .  S
C1618      F1624   1.380       .  S
C1625      C1626   1.408       .  A
C1625      C1630   1.411       .  A
C1625      H1632   1.083       .  S
C1626      C1627   1.420       .  A
C1627      C1628   1.413       .  A
C1627      C1634   1.519       .  S
C1628      C1629   1.403       .  A
C1628      H1633   1.083       .  S
C1629      C1630   1.411       .  A
C1630      C1631   1.516       .  S
C1631      F1635   1.384       .  S
C1631      F1636   1.379       .  S
C1631      F1637   1.383       .  S
C1634      F1638   1.380       .  S
C1634      F1639   1.384       .  S
C1634      F1640   1.384       .  S
C1641      C1642   1.401       .  A
C1641      C1646   1.404       .  A
C1641      H1648   1.084       .  S
C1642      C1643   1.417       .  A
C1643      C1644   1.414       .  A
C1643      C1650   1.515       .  S
C1644      C1645   1.405       .  A
C1644      H1649   1.083       .  S
C1645      C1646   1.417       .  A
C1646      C1647   1.520       .  S
C1647      F1651   1.380       .  S
C1647      F1652   1.382       .  S
C1647      F1653   1.382       .  S
C1650      F1654   1.383       .  S
C1650      F1655   1.383       .  S
C1650      F1656   1.384       .  S
C1657      C1658   1.407       .  A
C1657      C1662   1.416       .  A
C1657      H1664   1.083       .  S
C1658      C1659   1.416       .  A
C1659      C1660   1.401       .  A
C1659      C1666   1.517       .  S
C1660      C1661   1.401       .  A
C1660      H1665   1.084       .  S
C1661      C1662   1.416       .  A
C1662      C1663   1.516       .  S
C1663      F1667   1.384       .  S
C1663      F1668   1.383       .  S
C1663      F1669   1.382       .  S
C1666      F1670   1.384       .  S
C1666      F1671   1.381       .  S
C1666      F1672   1.385       .  S
C1673      C1674   1.399       .  A
C1673      C1678   1.404       .  A
C1673      H1680   1.083       .  S
C1674      C1675   1.413       .  A
C1675      C1676   1.410       .  A
C1675      C1682   1.517       .  S
C1676      C1677   1.409       .  A
C1676      H1681   1.082       .  S
C1677      C1678   1.430       .  A
C1678      C1679   1.525       .  S
C1679      F1683   1.385       .  S
C1679      F1684   1.381       .  S
C1679      F1685   1.384       .  S
C1682      F1686   1.380       .  S
C1682      F1687   1.383       .  S
C1682      F1688   1.384       .  S
C1689      C1690   1.409       .  A
C1689      C1694   1.415       .  A
C1689      H1696   1.083       .  S
C1690      C1691   1.433       .  A
C1691      C1692   1.401       .  A
C1691      C1698   1.526       .  S
C1692      C1693   1.394       .  A
C1692      H1697   1.084       .  S
C1693      C1694   1.415       .  A
C1694      C1695   1.515       .  S
C1695      F1699   1.385       .  S
C1695      F1700   1.383       .  S
C1695      F1701   1.381       .  S
C1698      F1702   1.384       .  S
C1698      F1703   1.382       .  S
C1698      F1704   1.385       .  S
C1705      C1706   1.402       .  A
C1705      C1710   1.404       .  A
C1705      H1712   1.083       .  S
C1706      C1707   1.413       .  A
C1707      C1708   1.400       .  A
C1707      C1714   1.520       .  S
C1708      C1709   1.403       .  A
C1708      H1713   1.083       .  S
C1709      C1710   1.413       .  A
C1710      C1711   1.516       .  S
C1711      F1715   1.385       .  S
C1711      F1716   1.382       .  S
C1711      F1717   1.383       .  S
C1714      F1718   1.381       .  S
C1714      F1719   1.383       .  S
C1714      F3648   1.385       .  S
F1720      C3642   1.384   1_455  S
C1721      C1722   1.405       .  A
C1721      C1726   1.408       .  A
C1721      H1728   1.083       .  S
C1722      C1723   1.417       .  A
C1723      C1724   1.401       .  A
C1723      C1730   1.521       .  S
C1724      C1725   1.401       .  A
C1724      H1729   1.083       .  S
C1725      C1726   1.414       .  A
C1726      C1727   1.517       .  S
C1727      F1731   1.384       .  S
C1727      F1732   1.384       .  S
C1727      F1733   1.382       .  S
C1730      F3662   1.382       .  S
C1730      F1735   1.380       .  S
C1730      F3664   1.385       .  S
F1734      C3658   1.382       .  S
F1736      C3658   1.385   1_455  S
C1737      C1738   1.410       .  A
C1737      C1742   1.401       .  A
C1737      H1744   1.081       .  S
C1738      C1739   1.425       .  A
C1739      C1740   1.417       .  A
C1739      C1746   1.517       .  S
C1740      C1741   1.404       .  A
C1740      H1745   1.083       .  S
C1741      C1742   1.414       .  A
C1742      C1743   1.524       .  S
C1743      F1747   1.385       .  S
C1743      F1748   1.383       .  S
C1743      F1749   1.381       .  S
C1746      F1750   1.383       .  S
C1746      F1751   1.383       .  S
C1746      F1752   1.385       .  S
C1753      C1754   1.410       .  A
C1753      C1758   1.398       .  A
C1753      H1760   1.082       .  S
C1754      C1755   1.423       .  A
C1755      C1756   1.413       .  A
C1755      C1762   1.516       .  S
C1756      C1757   1.403       .  A
C1756      H1761   1.083       .  S
C1757      C1758   1.409       .  A
C1758      C1759   1.521       .  S
C1759      F1763   1.385       .  S
C1759      F1764   1.382       .  S
C1759      F1765   1.382       .  S
C1762      F1766   1.383       .  S
C1762      F1767   1.379       .  S
C1762      F1768   1.385       .  S
C1769      C1770   1.402       .  A
C1769      C1774   1.398       .  A
C1769      H1776   1.084       .  S
C1770      C1771   1.416       .  A
C1771      C1772   1.407       .  A
C1771      C1778   1.518       .  S
C1772      C1773   1.402       .  A
C1772      H1777   1.083       .  S
C1773      C1774   1.413       .  A
C1774      C1775   1.519       .  S
C1775      F1779   1.385       .  S
C1775      F1780   1.382       .  S
C1775      F1781   1.379       .  S
C1778      F1782   1.383       .  S
C1778      F1783   1.383       .  S
C1778      F1784   1.385       .  S
C1785      C1786   1.401       .  A
C1785      C1790   1.407       .  A
C1785      H1792   1.083       .  S
C1786      C1787   1.414       .  A
C1787      C1788   1.401       .  A
C1787      C1794   1.518       .  S
C1788      C1789   1.402       .  A
C1788      H1793   1.084       .  S
C1789      C1790   1.416       .  A
C1790      C1791   1.517       .  S
C1791      F1795   1.385       .  S
C1791      F1796   1.383       .  S
C1791      F1797   1.383       .  S
C1794      F1798   1.379       .  S
C1794      F1799   1.382       .  S
C1794      F1800   1.384       .  S
C1801      C1802   1.409       .  A
C1801      C1806   1.418       .  A
C1801      H1808   1.083       .  S
C1802      C1803   1.427       .  A
C1803      C1804   1.408       .  A
C1803      C1810   1.519       .  S
C1804      C1805   1.398       .  A
C1804      H1809   1.084       .  S
C1805      C1806   1.417       .  A
C1806      C1807   1.516       .  S
C1807      F1811   1.384       .  S
C1807      F1812   1.383       .  S
C1807      F1813   1.383       .  S
C1810      F1814   1.383       .  S
C1810      F1815   1.382       .  S
C1810      F1816   1.379       .  S
C1817      C1818   1.405       .  A
C1817      C1822   1.416       .  A
C1817      H1824   1.083       .  S
C1818      C1819   1.413       .  A
C1819      C1820   1.405       .  A
C1819      C1826   1.518       .  S
C1820      C1821   1.405       .  A
C1820      H1825   1.083       .  S
C1821      C1822   1.420       .  A
C1822      C1823   1.517       .  S
C1823      F1827   1.385       .  S
C1823      F1828   1.381       .  S
C1823      F1829   1.383       .  S
C1826      F1830   1.380       .  S
C1826      F1831   1.384       .  S
C1826      F1832   1.384       .  S
C1833      C1834   1.401       .  A
C1833      C1838   1.404       .  A
C1833      H1840   1.083       .  S
C1834      C1835   1.415       .  A
C1835      C1836   1.407       .  A
C1835      C1842   1.515       .  S
C1836      C1837   1.401       .  A
C1836      H1841   1.083       .  S
C1837      C1838   1.417       .  A
C1838      C1839   1.518       .  S
C1839      F1843   1.385       .  S
C1839      F1844   1.380       .  S
C1839      F1845   1.384       .  S
C1842      F1846   1.377       .  S
C1842      F1847   1.383       .  S
C1842      F1848   1.384       .  S
C1849      C1850   1.403       .  A
C1849      C1854   1.412       .  A
C1849      H1856   1.083       .  S
C1850      C1851   1.414       .  A
C1851      C1852   1.406       .  A
C1851      C1858   1.520       .  S
C1852      C1853   1.406       .  A
C1852      H1857   1.083       .  S
C1853      C1854   1.419       .  A
C1854      C1855   1.516       .  S
C1855      F1859   1.384       .  S
C1855      F1860   1.383       .  S
C1855      F1861   1.383       .  S
C1858      F1862   1.382       .  S
C1858      F1863   1.384       .  S
C1858      F1864   1.382       .  S
C1865      C1866   1.405       .  A
C1865      C1870   1.413       .  A
C1865      H1872   1.083       .  S
C1866      C1867   1.440       .  A
C1867      C1868   1.402       .  A
C1867      C1874   1.525       .  S
C1868      C1869   1.391       .  A
C1868      H1873   1.083       .  S
C1869      C1870   1.419       .  A
C1870      C1871   1.516       .  S
C1871      F1875   1.384       .  S
C1871      F1876   1.383       .  S
C1871      F1877   1.382       .  S
C1874      F1878   1.383       .  S
C1874      F1879   1.377       .  S
C1874      F1880   1.386       .  S
C1881      C1882   1.409       .  A
C1881      C1886   1.419       .  A
C1881      H1888   1.083       .  S
C1882      C1883   1.412       .  A
C1883      C1884   1.404       .  A
C1883      C1890   1.521       .  S
C1884      C1885   1.410       .  A
C1884      H1889   1.080       .  S
C1885      C1886   1.420       .  A
C1886      C1887   1.515       .  S
C1887      F1891   1.385       .  S
C1887      F1892   1.383       .  S
C1887      F1893   1.382       .  S
C1890      F1894   1.382       .  S
C1890      F1895   1.382       .  S
C1890      F1896   1.385       .  S
C1897      C1898   1.409       .  A
C1897      C1902   1.411       .  A
C1897      H1904   1.082       .  S
C1898      C1899   1.429       .  A
C1899      C1900   1.403       .  A
C1899      C1906   1.524       .  S
C1900      C1901   1.398       .  A
C1900      H1905   1.084       .  S
C1901      C1902   1.414       .  A
C1902      C1903   1.518       .  S
C1903      F1907   1.385       .  S
C1903      F1908   1.380       .  S
C1903      F1909   1.383       .  S
C1906      F1910   1.382       .  S
C1906      F1911   1.384       .  S
C1906      F1912   1.385       .  S
C1913      C1914   1.400       .  A
C1913      C1918   1.410       .  A
C1913      H1920   1.083       .  S
C1914      C1915   1.410       .  A
C1915      C1916   1.401       .  A
C1915      C1922   1.522       .  S
C1916      C1917   1.411       .  A
C1916      H1921   1.082       .  S
C1917      C1918   1.423       .  A
C1918      C1919   1.514       .  S
C1919      F1923   1.384       .  S
C1919      F1924   1.382       .  S
C1919      F1925   1.383       .  S
C1922      F1926   1.383       .  S
C1922      F1927   1.381       .  S
C1922      F1928   1.384       .  S
N1929      C1934   1.355       .  A
N1929      C1933   1.352       .  A
N1929      H1961   1.039       .  S
N1930      C1937   1.350       .  A
N1930      C1938   1.353       .  A
N1931      C1936   1.352       .  A
N1931      C1935   1.353       .  A
N1931      H1962   1.040       .  S
N1932      C1939   1.352       .  A
N1932      C1940   1.352       .  A
C1933      C1941   1.386       .  A
C1933      C1949   1.413       .  A
C1934      C1950   1.419       .  A
C1934      C1942   1.389       .  A
C1935      C1943   1.386       .  A
C1935      C1952   1.414       .  A
C1936      C1951   1.415       .  A
C1936      C1944   1.388       .  A
C1937      C1949   1.413       .  A
C1937      C1945   1.387       .  A
C1938      C1952   1.413       .  A
C1938      C1946   1.385       .  A
C1939      C1947   1.386       .  A
C1939      C1950   1.418       .  A
C1940      C1948   1.387       .  A
C1940      C1951   1.418       .  A
C1941      C1942   1.373       .  A
C1941      H1953   1.082       .  S
C1942      H1954   1.082       .  S
C1943      C1944   1.374       .  A
C1943      H1955   1.083       .  S
C1944      H1956   1.082       .  S
C1945      C1946   1.377       .  A
C1945      H1957   1.082       .  S
C1946      H1958   1.082       .  S
C1947      C1948   1.381       .  A
C1947      H1959   1.082       .  S
C1948      H1960   1.082       .  S
C1949      C2878   1.485       .  S
C1950      C2846   1.500       .  S
C1951      C2833   1.491       .  S
C1952      C2865   1.498       .  S
N1963      C1968   1.356       .  A
N1963      C1967   1.352       .  A
N1963      H1995   1.037       .  S
N1964      C1971   1.353       .  A
N1964      C1972   1.355       .  A
N1965      C1970   1.351       .  A
N1965      C1969   1.352       .  A
N1965      H1996   1.039       .  S
N1966      C1973   1.348       .  A
N1966      C1974   1.347       .  A
C1967      C1975   1.387       .  A
C1967      C1983   1.416       .  A
C1968      C1984   1.418       .  A
C1968      C1976   1.387       .  A
C1969      C1977   1.387       .  A
C1969      C1986   1.410       .  A
C1970      C1985   1.413       .  A
C1970      C1978   1.388       .  A
C1971      C1983   1.420       .  A
C1971      C1979   1.387       .  A
C1972      C1986   1.419       .  A
C1972      C1980   1.385       .  A
C1973      C1981   1.385       .  A
C1973      C1984   1.407       .  A
C1974      C1982   1.387       .  A
C1974      C1985   1.410       .  A
C1975      C1976   1.376       .  A
C1975      H1987   1.082       .  S
C1976      H1988   1.082       .  S
C1977      C1978   1.376       .  A
C1977      H1989   1.082       .  S
C1978      H1990   1.082       .  S
C1979      C1980   1.382       .  A
C1979      H1991   1.082       .  S
C1980      H1992   1.082       .  S
C1981      C1982   1.376       .  A
C1981      H1993   1.082       .  S
C1982      H1994   1.082       .  S
C1983      C2785   1.497       .  S
C1984      C2814   1.492       .  S
C1985      C2798   1.482       .  S
C1986      C2766   1.496       .  S
N1997      N1998   1.327       .  A
N1997      N2003   1.315       .  A
N1997     Mn2990   2.232       .  S
N1998      C2005   1.361       .  A
N1999      N2001   1.314       .  A
N1999      N2000   1.315       .  A
N1999     Mn2015   2.189       .  S
N2000      C2006   1.348       .  A
N2001      N2002   1.329       .  A
N2001     Mn2026   2.237       .  S
N2002      C2006   1.363       .  A
N2003      N2004   1.312       .  A
N2003     Mn2979   2.175       .  S
N2004      C2005   1.348       .  A
C2005      C2881   1.493       .  S
C2006      C2862   1.501       .  S
N2007      N2013   1.315       .  A
N2007      N2008   1.323       .  A
N2007     Mn2037   2.201       .  S
N2008      C2016   1.354       .  A
N2009      N2010   1.318       .  A
N2009      N2011   1.315       .  A
N2009     Mn2979   2.192       .  S
N2010      C2017   1.350       .  A
N2011      N2012   1.326       .  A
N2011     Mn3001   2.227       .  S
N2012      C2017   1.359       .  A
N2013      N2014   1.314       .  A
N2013     Mn2015   2.176       .  S
N2014      C2016   1.345       .  A
Mn2015     N2967   2.174   1_545  S
Mn2015     N2973   2.193   1_545  S
Mn2015    Cl2039   2.510       .  S
C2016      C2801   1.462       .  S
C2017      C2817   1.486       .  S
N2018      N2019   1.325       .  A
N2018      N2024   1.314       .  A
N2018     Mn2026   2.215       .  S
N2019      C2027   1.358       .  A
N2020      N2022   1.314       .  A
N2020      N2021   1.312       .  A
N2020     Mn3002   2.169       .  S
N2021      C2028   1.348       .  A
N2022      N2023   1.327       .  A
N2022     Mn2990   2.232       .  S
N2023      C2028   1.362       .  A
N2024      N2025   1.312       .  A
N2024     Mn2038   2.175       .  S
N2025      C2027   1.350       .  A
Mn2026     N2961   2.222   1_545  S
Mn2026     N2986   2.244   1_545  S
Mn2026    Cl2039   2.582       .  S
C2027      C2702   1.493       .  S
C2028      C2718   1.497       .  S
N2029      N2030   1.321       .  A
N2029      N2035   1.315       .  A
N2029     Mn3001   2.198       .  S
N2030      C2040   1.353       .  A
N2031      N2032   1.316       .  A
N2031      N2033   1.314       .  A
N2031     Mn2038   2.193       .  S
N2032      C2041   1.351       .  A
N2033      N2034   1.324       .  A
N2033     Mn2037   2.206       .  S
N2034      C2041   1.355       .  A
N2035      N2036   1.316       .  A
N2035     Mn3002   2.185       .  S
N2036      C2040   1.349       .  A
Mn2037     N2975   2.206   1_545  S
Mn2037     N2993   2.209   1_545  S
Mn2037    Cl2039   2.579       .  S
Mn2038     N2984   2.179   1_545  S
Mn2038     N2999   2.178   1_545  S
Mn2038    Cl2039   2.509       .  S
C2040      C2753   1.470       .  S
C2041      C2734   1.479       .  S
N2042      C2047   1.353       .  A
N2042      C2046   1.350       .  A
N2042      H2074   1.038       .  S
N2043      C2050   1.350       .  A
N2043      C2051   1.351       .  A
N2044      C2049   1.352       .  A
N2044      C2048   1.351       .  A
N2044      H2075   1.040       .  S
N2045      C2052   1.346       .  A
N2045      C2053   1.345       .  A
C2046      C2054   1.386       .  A
C2046      C2062   1.411       .  A
C2047      C2063   1.416       .  A
C2047      C2055   1.388       .  A
C2048      C2056   1.386       .  A
C2048      C2065   1.409       .  A
C2049      C2064   1.415       .  A
C2049      C2057   1.388       .  A
C2050      C2062   1.413       .  A
C2050      C2058   1.387       .  A
C2051      C2065   1.411       .  A
C2051      C2059   1.385       .  A
C2052      C2060   1.386       .  A
C2052      C2063   1.406       .  A
C2053      C2061   1.386       .  A
C2053      C2064   1.405       .  A
C2054      C2055   1.376       .  A
C2054      H2066   1.082       .  S
C2055      H2067   1.082       .  S
C2056      C2057   1.376       .  A
C2056      H2068   1.082       .  S
C2057      H2069   1.082       .  S
C2058      C2059   1.376       .  A
C2058      H2070   1.082       .  S
C2059      H2071   1.082       .  S
C2060      C2061   1.375       .  A
C2060      H2072   1.082       .  S
C2061      H2073   1.082       .  S
C2062      C2721   1.484       .  S
C2063      C2686   1.483       .  S
C2064      C2670   1.479       .  S
C2065      C2705   1.486       .  S
N2076      C2081   1.353       .  A
N2076      C2080   1.353       .  A
N2076      H2108   1.038       .  S
N2077      C2084   1.352       .  A
N2077      C2085   1.350       .  A
N2078      C2083   1.354       .  A
N2078      C2082   1.351       .  A
N2078      H2109   1.039       .  S
N2079      C2086   1.345       .  A
N2079      C2087   1.347       .  A
C2080      C2088   1.386       .  A
C2080      C2096   1.415       .  A
C2081      C2097   1.418       .  A
C2081      C2089   1.389       .  A
C2082      C2090   1.387       .  A
C2082      C2099   1.412       .  A
C2083      C2098   1.417       .  A
C2083      C2091   1.387       .  A
C2084      C2096   1.411       .  A
C2084      C2092   1.386       .  A
C2085      C2099   1.411       .  A
C2085      C2093   1.386       .  A
C2086      C2094   1.387       .  A
C2086      C2097   1.408       .  A
C2087      C2095   1.385       .  A
C2087      C2098   1.407       .  A
C2088      C2089   1.377       .  A
C2088      H2100   1.082       .  S
C2089      H2101   1.082       .  S
C2090      C2091   1.376       .  A
C2090      H2102   1.082       .  S
C2091      H2103   1.082       .  S
C2092      C2093   1.376       .  A
C2092      H2104   1.082       .  S
C2093      H2105   1.082       .  S
C2094      C2095   1.377       .  A
C2094      H2106   1.082       .  S
C2095      H2107   1.082       .  S
C2096      C2657   1.491       .  S
C2097      C2750   1.481       .  S
C2098      C2737   1.488       .  S
C2099      C2638   1.484       .  S
N2110      N2111   1.311       .  A
N2110      N2116   1.317       .  A
N2111      C2118   1.343       .  A
N2112      N2114   1.318       .  A
N2112      N2113   1.319       .  A
N2112     Mn2128   2.210       .  S
N2113      C2119   1.348       .  A
N2114      N2115   1.328       .  A
N2115      C2119   1.361       .  A
N2116      N2117   1.333       .  A
N2116     Mn2128   2.257       .  S
N2117      C2118   1.369       .  A
C2118      C2849   1.503       .  S
C2119      C2577   1.486       .  S
N2120      N2126   1.318       .  A
N2120      N2121   1.328       .  A
N2121      C2129   1.360       .  A
N2122      N2123   1.335       .  A
N2122      N2124   1.317       .  A
N2122     Mn3092   2.260       .  S
N2123      C2130   1.371       .  A
N2124      N2125   1.307       .  A
N2125      C2130   1.337       .  A
N2126      N2127   1.314       .  A
N2126     Mn3092   2.191       .  S
N2127      C2129   1.345       .  A
Mn2128     N3086   2.270       .  S
Mn2128     N3090   2.184       .  S
C2129      C2606   1.481       .  S
C2130      C2830   1.497       .  S
N2131      N2132   1.329       .  A
N2131      N2137   1.319       .  A
N2131     Mn2139   2.236       .  S
N2132      C2140   1.361       .  A
N2133      N2135   1.318       .  A
N2133      N2134   1.330       .  A
N2133     Mn2151   2.239       .  S
N2134      C2141   1.363       .  A
N2135      N2136   1.314       .  A
N2135     Mn2139   2.187       .  S
N2136      C2141   1.343       .  A
N2137      N2138   1.318       .  A
N2137     Mn2151   2.207       .  S
N2138      C2140   1.347       .  A
Mn2139    Cl2152   2.534       .  S
C2140      C2593   1.485       .  S
C2141      C2782   1.479       .  S
N2142      N2143   1.311       .  A
N2142      N2148   1.317       .  A
N2142     Mn2150   2.171       .  S
N2143      C2153   1.340       .  A
N2144      N2145   1.315       .  A
N2144      N2146   1.317       .  A
N2144     Mn3115   2.193       .  S
N2145      C2154   1.345       .  A
N2146      N2147   1.328       .  A
N2146     Mn2150   2.218       .  S
N2147      C2154   1.359       .  A
N2148      N2149   1.333       .  A
N2148     Mn3115   2.251       .  S
N2149      C2153   1.366       .  A
Mn2150    Cl3116   2.530       .  S
Mn2151     N3108   2.188       .  S
Mn2151     N3112   2.266       .  S
Mn2151    Cl2152   2.567       .  S
Cl2152    Mn3114   2.531       .  S
C2153      C2769   1.485       .  S
C2154      C2622   1.480       .  S
N2155      N2156   1.328       .  A
N2155      N2161   1.314       .  A
N2156      C2163   1.358       .  A
N2157      N2159   1.315       .  A
N2157      N2158   1.311       .  A
N2157     Mn2173   2.172       .  S
N2158      C2164   1.345       .  A
N2159      N2160   1.327       .  A
N2159     Mn2184   2.220       .  S
N2160      C2164   1.358       .  A
N2161      N2162   1.312       .  A
N2162      C2163   1.346       .  A
C2163      C2561   1.476       .  S
C2164      C2545   1.470       .  S
N2165      N2171   1.314       .  A
N2165      N2166   1.327       .  A
N2165     Mn2195   2.225   1_556  S
N2166      C2174   1.363       .  A
N2167      N2168   1.311       .  A
N2167      N2169   1.315       .  A
N2168      C2175   1.343       .  A
N2169      N2170   1.330       .  A
N2170      C2175   1.366       .  A
N2171      N2172   1.313       .  A
N2171     Mn2173   2.186       .  S
N2172      C2174   1.346       .  A
Mn2173    Cl2197   2.508       .  S
C2174      C2510   1.500       .  S
C2175      C2529   1.500       .  S
N2176      N2177   1.320       .  A
N2176      N2182   1.315       .  A
N2176     Mn2184   2.185   1_554  S
N2177      C2185   1.350       .  A
N2178      N2180   1.316       .  A
N2178      N2179   1.314       .  A
N2179      C2186   1.347       .  A
N2180      N2181   1.323       .  A
N2181      C2186   1.353       .  A
N2182      N2183   1.315       .  A
N2182     Mn2196   2.188       .  S
N2183      C2185   1.349       .  A
Mn2184    Cl2197   2.578       .  S
C2185      C2449   1.456       .  S
C2186      C2462   1.463       .  S
N2187      N2188   1.328       .  A
N2187      N2193   1.316       .  A
N2188      C2198   1.361       .  A
N2189      N2190   1.316       .  A
N2189      N2191   1.317       .  A
N2189     Mn2196   2.191       .  S
N2190      C2199   1.347       .  A
N2191      N2192   1.328       .  A
N2191     Mn2195   2.238       .  S
N2192      C2199   1.361       .  A
N2193      N2194   1.316       .  A
N2194      C2198   1.351       .  A
Mn2195    Cl2197   2.585   1_554  S
Mn2196    Cl2197   2.511   1_554  S
C2198      C2494   1.501       .  S
C2199      C2478   1.488       .  S
N2200      C2205   1.353       .  A
N2200      C2204   1.354       .  A
N2200      H2232   1.030       .  S
N2201      C2208   1.355       .  A
N2201      C2209   1.353       .  A
N2202      C2207   1.359       .  A
N2202      C2206   1.357       .  A
N2202      H2233   1.034       .  S
N2203      C2210   1.354       .  A
N2203      C2211   1.353       .  A
C2204      C2212   1.390       .  A
C2204      C2220   1.423       .  A
C2205      C2221   1.418       .  A
C2205      C2213   1.387       .  A
C2206      C2214   1.390       .  A
C2206      C2223   1.427       .  A
C2207      C2222   1.422       .  A
C2207      C2215   1.386       .  A
C2208      C2220   1.420       .  A
C2208      C2216   1.386       .  A
C2209      C2223   1.420       .  A
C2209      C2217   1.388       .  A
C2210      C2218   1.386       .  A
C2210      C2221   1.419       .  A
C2211      C2219   1.387       .  A
C2211      C2222   1.420       .  A
C2212      C2213   1.369       .  A
C2212      H2224   1.081       .  S
C2213      H2225   1.082       .  S
C2214      C2215   1.372       .  A
C2214      H2226   1.082       .  S
C2215      H2227   1.082       .  S
C2216      C2217   1.371       .  A
C2216      H2228   1.082       .  S
C2217      H2229   1.082       .  S
C2218      C2219   1.373       .  A
C2218      H2230   1.082       .  S
C2219      H2231   1.082       .  S
C2220      C2526   1.498       .  S
C2221      C2430   1.492       .  S
C2222      C2414   1.500       .  S
C2223      C2513   1.494       .  S
N2234      C2239   1.349       .  A
N2234      C2238   1.349       .  A
N2234      H2266   1.045       .  S
N2235      C2242   1.352       .  A
N2235      C2243   1.343       .  A
N2236      C2241   1.358       .  A
N2236      C2240   1.358       .  A
N2236      H2267   1.040       .  S
N2237      C2244   1.352       .  A
N2237      C2245   1.342       .  A
C2238      C2246   1.386       .  A
C2238      C2254   1.397       .  A
C2239      C2255   1.394       .  A
C2239      C2247   1.386       .  A
C2240      C2248   1.387       .  A
C2240      C2257   1.424       .  A
C2241      C2256   1.423       .  A
C2241      C2249   1.387       .  A
C2242      C2254   1.417       .  A
C2242      C2250   1.385       .  A
C2243      C2257   1.414       .  A
C2243      C2251   1.390       .  A
C2244      C2252   1.384       .  A
C2244      C2255   1.412       .  A
C2245      C2253   1.390       .  A
C2245      C2256   1.412       .  A
C2246      C2247   1.364       .  A
C2246      H2258   1.083       .  S
C2247      H2259   1.083       .  S
C2248      C2249   1.378       .  A
C2248      H2260   1.082       .  S
C2249      H2261   1.082       .  S
C2250      C2251   1.380       .  A
C2250      H2262   1.082       .  S
C2251      H2263   1.082       .  S
C2252      C2253   1.379       .  A
C2252      H2264   1.082       .  S
C2253      H2265   1.082       .  S
C2254      C2542   1.500       .  S
C2255      C2558   1.493       .  S
C2256      C2398   1.487       .  S
C2257      C2385   1.490       .  S
N2268      N2269   1.331       .  A
N2268      N2274   1.312       .  A
N2268     Mn2297   2.242       .  S
N2269      C2276   1.367       .  A
N2270      N2272   1.311       .  A
N2270      N2271   1.313       .  A
N2270     Mn3250   2.170       .  S
N2271      C2277   1.346       .  A
N2272      N2273   1.326       .  A
N2272     Mn3261   2.218       .  S
N2273      C2277   1.361       .  A
N2274      N2275   1.308       .  A
N2274     Mn2286   2.155       .  S
N2275      C2276   1.340       .  A
C2276      C2654   1.498       .  S
C2277      C2641   1.495       .  S
N2278      N2284   1.312       .  A
N2278      N2279   1.323       .  A
N2278     Mn3272   2.204       .  S
N2279      C2287   1.355       .  A
N2280      N2281   1.312       .  A
N2280      N2282   1.313       .  A
N2281      C2288   1.345       .  A
N2282      N2283   1.327       .  A
N2282     Mn2308   2.232       .  S
N2283      C2288   1.361       .  A
N2284      N2285   1.314       .  A
N2285      C2287   1.349       .  A
Mn2286     N3234   2.178       .  S
Mn2286    Cl2310   2.525       .  S
C2287      C2673   1.474       .  S
C2288      C2689   1.480       .  S
N2289      N2290   1.318       .  A
N2289      N2295   1.318       .  A
N2289     Mn3261   2.198       .  S
N2290      C2298   1.351       .  A
N2291      N2293   1.321       .  A
N2291      N2292   1.323       .  A
N2291     Mn2309   2.223       .  S
N2292      C2299   1.355       .  A
N2293      N2294   1.320       .  A
N2293     Mn2297   2.208       .  S
N2294      C2299   1.352       .  A
N2295      N2296   1.321       .  A
N2295     Mn3273   2.217       .  S
N2296      C2298   1.355       .  A
Mn2297     N3236   2.219       .  S
Mn2297     N3253   2.203       .  S
Mn2297    Cl2310   2.560       .  S
C2298      C2382   1.474       .  S
C2299      C2417   1.487       .  S
N2300      N2301   1.319       .  A
N2300      N2306   1.319       .  A
N2300     Mn2308   2.196       .  S
N2301      C2311   1.350       .  A
N2302      N2303   1.323       .  A
N2302      N2304   1.316       .  A
N2303      C2312   1.358       .  A
N2304      N2305   1.316       .  A
N2304     Mn3272   2.183       .  S
N2305      C2312   1.349       .  A
N2306      N2307   1.325       .  A
N2307      C2311   1.359       .  A
Mn2308     N3242   2.203       .  S
Mn2308     N3268   2.203       .  S
Mn2309     N3259   2.214       .  S
Mn2309    Cl2310   2.544       .  S
C2311      C2433   1.485       .  S
C2312      C2401   1.472       .  S
N2313      C2318   1.346       .  A
N2313      C2317   1.347       .  A
N2313      H2345   1.041       .  S
N2314      C2321   1.350       .  A
N2314      C2322   1.348       .  A
N2315      C2320   1.356       .  A
N2315      C2319   1.355       .  A
N2315      H2346   1.042       .  S
N2316      C2323   1.350       .  A
N2316      C2324   1.348       .  A
C2317      C2325   1.384       .  A
C2317      C2333   1.400       .  A
C2318      C2334   1.406       .  A
C2318      C2326   1.388       .  A
C2319      C2327   1.387       .  A
C2319      C2336   1.419       .  A
C2320      C2335   1.420       .  A
C2320      C2328   1.387       .  A
C2321      C2333   1.411       .  A
C2321      C2329   1.386       .  A
C2322      C2336   1.406       .  A
C2322      C2330   1.386       .  A
C2323      C2331   1.387       .  A
C2323      C2334   1.415       .  A
C2324      C2332   1.386       .  A
C2324      C2335   1.410       .  A
C2325      C2326   1.376       .  A
C2325      H2337   1.082       .  S
C2326      H2338   1.082       .  S
C2327      C2328   1.380       .  A
C2327      H2339   1.082       .  S
C2328      H2340   1.082       .  S
C2329      C2330   1.374       .  A
C2329      H2341   1.082       .  S
C2330      H2342   1.082       .  S
C2331      C2332   1.375       .  A
C2331      H2343   1.082       .  S
C2332      H2344   1.082       .  S
C2333      C2465   1.479       .  S
C2334      C2446   1.483       .  S
C2335      C2625   1.491       .  S
C2336      C2609   1.489       .  S
N2347      C2352   1.359       .  A
N2347      C2351   1.356       .  A
N2347      H2379   1.040       .  S
N2348      C2355   1.351       .  A
N2348      C2356   1.354       .  A
N2349      C2354   1.352       .  A
N2349      C2353   1.354       .  A
N2349      H2380   1.038       .  S
N2350      C2357   1.352       .  A
N2350      C2358   1.350       .  A
C2351      C2359   1.388       .  A
C2351      C2367   1.425       .  A
C2352      C2368   1.425       .  A
C2352      C2360   1.386       .  A
C2353      C2361   1.386       .  A
C2353      C2370   1.415       .  A
C2354      C2369   1.416       .  A
C2354      C2362   1.388       .  A
C2355      C2367   1.414       .  A
C2355      C2363   1.388       .  A
C2356      C2370   1.415       .  A
C2356      C2364   1.385       .  A
C2357      C2365   1.386       .  A
C2357      C2368   1.412       .  A
C2358      C2366   1.387       .  A
C2358      C2369   1.412       .  A
C2359      C2360   1.385       .  A
C2359      H2371   1.082       .  S
C2360      H2372   1.082       .  S
C2361      C2362   1.379       .  A
C2361      H2373   1.082       .  S
C2362      H2374   1.082       .  S
C2363      C2364   1.373       .  A
C2363      H2375   1.082       .  S
C2364      H2376   1.082       .  S
C2365      C2366   1.373       .  A
C2365      H2377   1.082       .  S
C2366      H2378   1.082       .  S
C2367      C2574   1.498       .  S
C2368      C2590   1.506       .  S
C2369      C2481   1.486       .  S
C2370      C2497   1.496       .  S
C2381      C2382   1.402       .  A
C2381      C2386   1.405       .  A
C2381      H2388   1.084       .  S
C2382      C2383   1.411       .  A
C2383      C2384   1.408       .  A
C2383      C2390   1.515       .  S
C2384      C2385   1.405       .  A
C2384      H2389   1.083       .  S
C2385      C2386   1.417       .  A
C2386      C2387   1.519       .  S
C2387      F2391   1.384       .  S
C2387      F2392   1.383       .  S
C2387      F2393   1.380       .  S
C2390      F2394   1.383       .  S
C2390      F2395   1.383       .  S
C2390      F2396   1.384       .  S
C2397      C2398   1.405       .  A
C2397      C2402   1.409       .  A
C2397      H2404   1.083       .  S
C2398      C2399   1.414       .  A
C2399      C2400   1.403       .  A
C2399      C2406   1.516       .  S
C2400      C2401   1.401       .  A
C2400      H2405   1.084       .  S
C2401      C2402   1.412       .  A
C2402      C2403   1.515       .  S
C2403      F2407   1.384       .  S
C2403      F2408   1.384       .  S
C2403      F2409   1.383       .  S
C2406      F2410   1.381       .  S
C2406      F2411   1.383       .  S
C2406      F2412   1.383       .  S
C2413      C2414   1.405       .  A
C2413      C2418   1.409       .  A
C2413      H2420   1.083       .  S
C2414      C2415   1.418       .  A
C2415      C2416   1.411       .  A
C2415      C2422   1.520       .  S
C2416      C2417   1.407       .  A
C2416      H2421   1.083       .  S
C2417      C2418   1.417       .  A
C2418      C2419   1.518       .  S
C2419      F2423   1.384       .  S
C2419      F2424   1.383       .  S
C2419      F2425   1.383       .  S
C2422      F2426   1.385       .  S
C2422      F2427   1.383       .  S
C2422      F2428   1.381       .  S
C2429      C2430   1.401       .  A
C2429      C2434   1.409       .  A
C2429      H2436   1.083       .  S
C2430      C2431   1.415       .  A
C2431      C2432   1.410       .  A
C2431      C2438   1.520       .  S
C2432      C2433   1.406       .  A
C2432      H2437   1.083       .  S
C2433      C2434   1.418       .  A
C2434      C2435   1.518       .  S
C2435      F2439   1.385       .  S
C2435      F2440   1.383       .  S
C2435      F2441   1.382       .  S
C2438      F2442   1.381       .  S
C2438      F2443   1.383       .  S
C2438      F2444   1.384       .  S
C2445      C2446   1.407       .  A
C2445      C2450   1.401       .  A
C2445      H2452   1.083       .  S
C2446      C2447   1.418       .  A
C2447      C2448   1.401       .  A
C2447      C2454   1.518       .  S
C2448      C2449   1.398       .  A
C2448      H2453   1.085       .  S
C2449      C2450   1.407       .  A
C2450      C2451   1.518       .  S
C2451      F2455   1.384       .  S
C2451      F2456   1.380       .  S
C2451      F2457   1.383       .  S
C2454      F2458   1.382       .  S
C2454      F2459   1.383       .  S
C2454      F2460   1.384       .  S
C2461      C2462   1.399       .  A
C2461      C2466   1.400       .  A
C2461      H2468   1.084       .  S
C2462      C2463   1.413       .  A
C2463      C2464   1.405       .  A
C2463      C2470   1.517       .  S
C2464      C2465   1.403       .  A
C2464      H2469   1.083       .  S
C2465      C2466   1.416       .  A
C2466      C2467   1.522       .  S
C2467      F2471   1.385       .  S
C2467      F2472   1.382       .  S
C2467      F2473   1.381       .  S
C2470      F2474   1.384       .  S
C2470      F2475   1.383       .  S
C2470      F2476   1.385       .  S
C2477      C2478   1.406       .  A
C2477      C2482   1.412       .  A
C2477      H2484   1.083       .  S
C2478      C2479   1.424       .  A
C2479      C2480   1.401       .  A
C2479      C2486   1.514       .  S
C2480      C2481   1.394       .  A
C2480      H2485   1.084       .  S
C2481      C2482   1.416       .  A
C2482      C2483   1.517       .  S
C2483      F2487   1.384       .  S
C2483      F2488   1.383       .  S
C2483      F2489   1.382       .  S
C2486      F2490   1.380       .  S
C2486      F2491   1.381       .  S
C2486      F2492   1.385       .  S
C2493      C2494   1.409       .  A
C2493      C2498   1.404       .  A
C2493      H2500   1.082       .  S
C2494      C2495   1.424       .  A
C2495      C2496   1.417       .  A
C2495      C2502   1.517       .  S
C2496      C2497   1.405       .  A
C2496      H2501   1.083       .  S
C2497      C2498   1.412       .  A
C2498      C2499   1.520       .  S
C2499      F2503   1.384       .  S
C2499      F2504   1.382       .  S
C2499      F2505   1.381       .  S
C2502      F2506   1.383       .  S
C2502      F2507   1.383       .  S
C2502      F2508   1.385       .  S
C2509      C2510   1.411       .  A
C2509      C2514   1.412       .  A
C2509      H2516   1.082       .  S
C2510      C2511   1.432       .  A
C2511      C2512   1.404       .  A
C2511      C2518   1.524       .  S
C2512      C2513   1.396       .  A
C2512      H2517   1.083       .  S
C2513      C2514   1.414       .  A
C2514      C2515   1.518       .  S
C2515      F2519   1.385       .  S
C2515      F2520   1.383       .  S
C2515      F2521   1.382       .  S
C2518      F2522   1.383       .  S
C2518      F2523   1.380       .  S
C2518      F2524   1.385       .  S
C2525      C2526   1.397       .  A
C2525      C2530   1.405       .  A
C2525      H2532   1.083       .  S
C2526      C2527   1.415       .  A
C2527      C2528   1.413       .  A
C2527      C2534   1.518       .  S
C2528      C2529   1.408       .  A
C2528      H2533   1.082       .  S
C2529      C2530   1.434       .  A
C2530      C2531   1.526       .  S
C2531      F2535   1.385       .  S
C2531      F2536   1.380       .  S
C2531      F2537   1.384       .  S
C2534      F2538   1.381       .  S
C2534      F2539   1.383       .  S
C2534      F2540   1.384       .  S
C2541      C2542   1.411       .  A
C2541      C2546   1.408       .  A
C2541      H2548   1.083       .  S
C2542      C2543   1.427       .  A
C2543      C2544   1.403       .  A
C2543      C2550   1.522       .  S
C2544      C2545   1.398       .  A
C2544      H2549   1.084       .  S
C2545      C2546   1.408       .  A
C2546      C2547   1.515       .  S
C2547      F2551   1.384       .  S
C2547      F2552   1.383       .  S
C2547      F2553   1.383       .  S
C2550      F2554   1.381       .  S
C2550      F2555   1.378       .  S
C2550      F2556   1.385       .  S
C2557      C2558   1.409       .  A
C2557      C2562   1.409       .  A
C2557      H2564   1.083       .  S
C2558      C2559   1.422       .  A
C2559      C2560   1.403       .  A
C2559      C2566   1.523       .  S
C2560      C2561   1.401       .  A
C2560      H2565   1.084       .  S
C2561      C2562   1.411       .  A
C2562      C2563   1.516       .  S
C2563      F2567   1.385       .  S
C2563      F2568   1.383       .  S
C2563      F2569   1.383       .  S
C2566      F2570   1.378       .  S
C2566      F2571   1.383       .  S
C2566      F2572   1.384       .  S
C2573      C2574   1.403       .  A
C2573      C2578   1.411       .  A
C2573      H2580   1.083       .  S
C2574      C2575   1.421       .  A
C2575      C2576   1.413       .  A
C2575      C2582   1.522       .  S
C2576      C2577   1.404       .  A
C2576      H2581   1.083       .  S
C2577      C2578   1.417       .  A
C2578      C2579   1.517       .  S
C2579      F2583   1.384       .  S
C2579      F2584   1.383       .  S
C2579      F2585   1.383       .  S
C2582      F2586   1.383       .  S
C2582      F2587   1.383       .  S
C2582      F2588   1.380       .  S
C2589      C2590   1.409       .  A
C2589      C2594   1.412       .  A
C2589      H2596   1.083       .  S
C2590      C2591   1.418       .  A
C2591      C2592   1.414       .  A
C2591      C2598   1.517       .  S
C2592      C2593   1.404       .  A
C2592      H2597   1.083       .  S
C2593      C2594   1.412       .  A
C2594      C2595   1.516       .  S
C2595      F2599   1.384       .  S
C2595      F2600   1.379       .  S
C2595      F2601   1.383       .  S
C2598      F2602   1.381       .  S
C2598      F2603   1.384       .  S
C2598      F2604   1.384       .  S
C2605      C2606   1.402       .  A
C2605      C2610   1.402       .  A
C2605      H2612   1.084       .  S
C2606      C2607   1.417       .  A
C2607      C2608   1.413       .  A
C2607      C2614   1.515       .  S
C2608      C2609   1.404       .  A
C2608      H2613   1.083       .  S
C2609      C2610   1.415       .  A
C2610      C2611   1.520       .  S
C2611      F2615   1.380       .  S
C2611      F2616   1.382       .  S
C2611      F2617   1.381       .  S
C2614      F2618   1.383       .  S
C2614      F2619   1.383       .  S
C2614      F2620   1.385       .  S
C2621      C2622   1.407       .  A
C2621      C2626   1.416       .  A
C2621      H2628   1.083       .  S
C2622      C2623   1.416       .  A
C2623      C2624   1.399       .  A
C2623      C2630   1.517       .  S
C2624      C2625   1.400       .  A
C2624      H2629   1.084       .  S
C2625      C2626   1.416       .  A
C2626      C2627   1.516       .  S
C2627      F2631   1.385       .  S
C2627      F2632   1.383       .  S
C2627      F2633   1.382       .  S
C2630      F2634   1.384       .  S
C2630      F2635   1.382       .  S
C2630      F2636   1.385       .  S
C2637      C2638   1.394       .  A
C2637      C2642   1.400       .  A
C2637      H2644   1.083       .  S
C2638      C2639   1.411       .  A
C2639      C2640   1.410       .  A
C2639      C2646   1.517       .  S
C2640      C2641   1.411       .  A
C2640      H2645   1.082       .  S
C2641      C2642   1.431       .  A
C2642      C2643   1.524       .  S
C2643      F2647   1.385       .  S
C2643      F2648   1.379       .  S
C2643      F2649   1.383       .  S
C2646      F2650   1.382       .  S
C2646      F2651   1.383       .  S
C2646      F2652   1.384       .  S
C2653      C2654   1.409       .  A
C2653      C2658   1.413       .  A
C2653      H2660   1.082       .  S
C2654      C2655   1.435       .  A
C2655      C2656   1.402       .  A
C2655      C2662   1.527       .  S
C2656      C2657   1.394       .  A
C2656      H2661   1.083       .  S
C2657      C2658   1.415       .  A
C2658      C2659   1.516       .  S
C2659      F2663   1.384       .  S
C2659      F2664   1.383       .  S
C2659      F2665   1.381       .  S
C2662      F2666   1.383       .  S
C2662      F2667   1.380       .  S
C2662      F2668   1.385       .  S
C2669      C2670   1.402       .  A
C2669      C2674   1.408       .  A
C2669      H2676   1.083       .  S
C2670      C2671   1.413       .  A
C2671      C2672   1.399       .  A
C2671      C2678   1.521       .  S
C2672      C2673   1.403       .  A
C2672      H2677   1.083       .  S
C2673      C2674   1.417       .  A
C2674      C2675   1.518       .  S
C2675      F2679   1.385       .  S
C2675      F2680   1.383       .  S
C2675      F2681   1.383       .  S
C2678      F2682   1.381       .  S
C2678      F2683   1.382       .  S
C2685      C2686   1.402       .  A
C2685      C2690   1.408       .  A
C2685      H2692   1.083       .  S
C2686      C2687   1.413       .  A
C2687      C2688   1.402       .  A
C2687      C2694   1.521       .  S
C2688      C2689   1.407       .  A
C2688      H2693   1.083       .  S
C2689      C2690   1.417       .  A
C2690      C2691   1.516       .  S
C2691      F2695   1.385       .  S
C2691      F2696   1.383       .  S
C2691      F2697   1.382       .  S
C2694      F2699   1.382       .  S
C2701      C2702   1.409       .  A
C2701      C2706   1.397       .  A
C2701      H2708   1.081       .  S
C2702      C2703   1.424       .  A
C2703      C2704   1.414       .  A
C2703      C2710   1.518       .  S
C2704      C2705   1.404       .  A
C2704      H2709   1.083       .  S
C2705      C2706   1.412       .  A
C2706      C2707   1.523       .  S
C2707      F2711   1.385       .  S
C2707      F2712   1.382       .  S
C2707      F2713   1.381       .  S
C2710      F2714   1.383       .  S
C2710      F2715   1.383       .  S
C2710      F2716   1.385       .  S
C2717      C2718   1.412       .  A
C2717      C2722   1.399       .  A
C2717      H2724   1.081       .  S
C2718      C2719   1.423       .  A
C2719      C2720   1.413       .  A
C2719      C2726   1.515       .  S
C2720      C2721   1.402       .  A
C2720      H2725   1.083       .  S
C2721      C2722   1.411       .  A
C2722      C2723   1.523       .  S
C2723      F2727   1.385       .  S
C2723      F2728   1.382       .  S
C2723      F2729   1.383       .  S
C2726      F2730   1.383       .  S
C2726      F2731   1.381       .  S
C2726      F2732   1.385       .  S
C2733      C2734   1.402       .  A
C2733      C2738   1.402       .  A
C2733      H2740   1.083       .  S
C2734      C2735   1.417       .  A
C2735      C2736   1.410       .  A
C2735      C2742   1.517       .  S
C2736      C2737   1.404       .  A
C2736      H2741   1.083       .  S
C2737      C2738   1.415       .  A
C2738      C2739   1.519       .  S
C2739      F2743   1.384       .  S
C2739      F2744   1.382       .  S
C2739      F2745   1.380       .  S
C2742      F2746   1.383       .  S
C2742      F2747   1.383       .  S
C2742      F2748   1.385       .  S
C2749      C2750   1.401       .  A
C2749      C2754   1.405       .  A
C2749      H2756   1.083       .  S
C2750      C2751   1.414       .  A
C2751      C2752   1.402       .  A
C2751      C2758   1.519       .  S
C2752      C2753   1.402       .  A
C2752      H2757   1.084       .  S
C2753      C2754   1.415       .  A
C2754      C2755   1.518       .  S
C2755      F2759   1.384       .  S
C2755      F2760   1.382       .  S
C2755      F2761   1.384       .  S
C2758      F2762   1.380       .  S
C2758      F2763   1.383       .  S
C2758      F2764   1.385       .  S
C2765      C2766   1.408       .  A
C2765      C2770   1.417       .  A
C2765      H2772   1.083       .  S
C2766      C2767   1.416       .  A
C2767      C2768   1.406       .  A
C2767      C2774   1.521       .  S
C2768      C2769   1.405       .  A
C2768      H2773   1.083       .  S
C2769      C2770   1.416       .  A
C2770      C2771   1.515       .  S
C2771      F2775   1.384       .  S
C2771      F2776   1.383       .  S
C2771      F2777   1.383       .  S
C2774      F2778   1.384       .  S
C2774      F2779   1.382       .  S
C2774      F2780   1.382       .  S
C2781      C2782   1.404       .  A
C2781      C2786   1.414       .  A
C2781      H2788   1.083       .  S
C2782      C2783   1.415       .  A
C2783      C2784   1.407       .  A
C2783      C2790   1.519       .  S
C2784      C2785   1.405       .  A
C2784      H2789   1.083       .  S
C2785      C2786   1.419       .  A
C2786      C2787   1.518       .  S
C2787      F2791   1.384       .  S
C2787      F2792   1.381       .  S
C2787      F2793   1.383       .  S
C2790      F2794   1.380       .  S
C2790      F2795   1.383       .  S
C2790      F2796   1.385       .  S
C2797      C2798   1.401       .  A
C2797      C2802   1.399       .  A
C2797      H2804   1.084       .  S
C2798      C2799   1.418       .  A
C2799      C2800   1.404       .  A
C2799      C2806   1.517       .  S
C2800      C2801   1.399       .  A
C2800      H2805   1.084       .  S
C2801      C2802   1.413       .  A
C2802      C2803   1.518       .  S
C2803      F2807   1.385       .  S
C2803      F2808   1.380       .  S
C2803      F2809   1.383       .  S
C2806      F2810   1.381       .  S
C2806      F2811   1.383       .  S
C2806      F2812   1.385       .  S
C2813      C2814   1.403       .  A
C2813      C2818   1.411       .  A
C2813      H2820   1.083       .  S
C2814      C2815   1.415       .  A
C2815      C2816   1.408       .  A
C2815      C2822   1.519       .  S
C2816      C2817   1.405       .  A
C2816      H2821   1.083       .  S
C2817      C2818   1.418       .  A
C2818      C2819   1.516       .  S
C2819      F2823   1.385       .  S
C2819      F2824   1.383       .  S
C2819      F2825   1.382       .  S
C2822      F2826   1.383       .  S
C2822      F2827   1.382       .  S
C2822      F2828   1.384       .  S
C2829      C2830   1.405       .  A
C2829      C2834   1.415       .  A
C2829      H2836   1.084       .  S
C2830      C2831   1.432       .  A
C2831      C2832   1.401       .  A
C2831      C2838   1.522       .  S
C2832      C2833   1.393       .  A
C2832      H2837   1.084       .  S
C2833      C2834   1.422       .  A
C2834      C2835   1.517       .  S
C2835      F2839   1.383       .  S
C2835      F2840   1.381       .  S
C2835      F2841   1.383       .  S
C2838      F2842   1.383   1_655  S
C2838      F2843   1.382   1_655  S
C2838      F2844   1.384   1_655  S
C2845      C2846   1.409       .  A
C2845      C2850   1.417       .  A
C2845      H2852   1.083       .  S
C2846      C2847   1.415       .  A
C2847      C2848   1.405       .  A
C2847      C2854   1.524       .  S
C2848      C2849   1.413       .  A
C2848      H2853   1.081       .  S
C2849      C2850   1.419       .  A
C2850      C2851   1.515       .  S
C2851      F2855   1.384       .  S
C2851      F2856   1.383       .  S
C2851      F2857   1.383       .  S
C2854      F2858   1.381       .  S
C2854      F2859   1.383       .  S
C2854      F2860   1.385   1_655  S
C2861      C2862   1.410       .  A
C2861      C2866   1.415       .  A
C2861      H2868   1.084       .  S
C2862      C2863   1.428       .  A
C2863      C2864   1.402       .  A
C2863      C2870   1.523       .  S
C2864      C2865   1.399       .  A
C2864      H2869   1.084       .  S
C2865      C2866   1.420       .  A
C2866      C2867   1.518       .  S
C2867      F2871   1.384       .  S
C2867      F2872   1.383       .  S
C2867      F2873   1.381       .  S
C2870      F2874   1.382       .  S
C2870      F2875   1.383       .  S
C2870      F2876   1.386       .  S
C2877      C2878   1.402       .  A
C2877      C2882   1.411       .  A
C2877      H2884   1.083       .  S
C2878      C2879   1.410       .  A
C2879      C2880   1.401       .  A
C2879      C2886   1.521       .  S
C2880      C2881   1.411       .  A
C2880      H2885   1.082       .  S
C2881      C2882   1.422       .  A
C2882      C2883   1.517       .  S
C2883      F2887   1.385       .  S
C2883      F2888   1.379       .  S
C2883      F2889   1.383       .  S
C2886      F2890   1.382       .  S
C2886      F2891   1.382       .  S
C2886      F2892   1.385       .  S
N2893      C2898   1.354       .  A
N2893      C2897   1.352       .  A
N2893      H2925   1.039       .  S
N2894      C2901   1.349       .  A
N2894      C2902   1.350       .  A
N2895      C2900   1.354       .  A
N2895      C2899   1.354       .  A
N2895      H2926   1.039       .  S
N2896      C2903   1.356       .  A
N2896      C2904   1.355       .  A
C2897      C2905   1.386       .  A
C2897      C2913   1.412       .  A
C2898      C2914   1.418       .  A
C2898      C2906   1.389       .  A
C2899      C2907   1.385       .  A
C2899      C2916   1.414       .  A
C2900      C2915   1.419       .  A
C2900      C2908   1.389       .  A
C2901      C2913   1.409       .  A
C2901      C2909   1.387       .  A
C2902      C2916   1.407       .  A
C2902      C2910   1.385       .  A
C2903      C2911   1.386       .  A
C2903      C2914   1.425       .  A
C2904      C2912   1.386       .  A
C2904      C2915   1.424       .  A
C2905      C2906   1.373       .  A
C2905      H2917   1.082       .  S
C2906      H2918   1.082       .  S
C2907      C2908   1.373       .  A
C2907      H2919   1.083       .  S
C2908      H2920   1.082       .  S
C2909      C2910   1.372       .  A
C2909      H2921   1.082       .  S
C2910      H2922   1.082       .  S
C2911      C2912   1.382       .  A
C2911      H2923   1.082       .  S
C2912      H2924   1.082       .  S
C2913      C3842   1.481       .  S
C2914      C3810   1.504       .  S
C2915      C3797   1.501       .  S
C2916      C3829   1.486       .  S
N2927      C2932   1.356       .  A
N2927      C2931   1.353       .  A
N2927      H2959   1.039       .  S
N2928      C2935   1.356       .  A
N2928      C2936   1.357       .  A
N2929      C2934   1.353       .  A
N2929      C2933   1.352       .  A
N2929      H2960   1.041       .  S
N2930      C2937   1.347       .  A
N2930      C2938   1.347       .  A
C2931      C2939   1.387       .  A
C2931      C2947   1.417       .  A
C2932      C2948   1.418       .  A
C2932      C2940   1.387       .  A
C2933      C2941   1.387       .  A
C2933      C2950   1.411       .  A
C2934      C2949   1.415       .  A
C2934      C2942   1.387       .  A
C2935      C2947   1.425       .  A
C2935      C2943   1.387       .  A
C2936      C2950   1.423       .  A
C2936      C2944   1.385       .  A
C2937      C2945   1.386       .  A
C2937      C2948   1.407       .  A
C2938      C2946   1.386       .  A
C2938      C2949   1.409       .  A
C2939      C2940   1.375       .  A
C2939      H2951   1.082       .  S
C2940      H2952   1.082       .  S
C2941      C2942   1.376       .  A
C2941      H2953   1.082       .  S
C2942      H2954   1.082       .  S
C2943      C2944   1.385       .  A
C2943      H2955   1.082       .  S
C2944      H2956   1.082       .  S
C2945      C2946   1.376       .  A
C2945      H2957   1.082       .  S
C2946      H2958   1.082       .  S
C2947      C3749   1.504       .  S
C2948      C3778   1.487       .  S
C2949      C3762   1.487       .  S
C2950      C3730   1.504       .  S
N2961      N2962   1.325       .  A
N2961      N2967   1.314       .  A
N2962      C2969   1.360       .  A
N2963      N2965   1.314       .  A
N2963      N2964   1.311       .  A
N2963     Mn2979   2.172       .  S
N2964      C2970   1.344       .  A
N2965      N2966   1.326       .  A
N2965     Mn2990   2.222       .  S
N2966      C2970   1.362       .  A
N2967      N2968   1.312       .  A
N2968      C2969   1.348       .  A
C2969      C3845   1.489       .  S
C2970      C3826   1.490       .  S
N2971      N2977   1.314       .  A
N2971      N2972   1.322       .  A
N2971     Mn3001   2.193       .  S
N2972      C2980   1.352       .  A
N2973      N2974   1.318       .  A
N2973      N2975   1.315       .  A
N2974      C2981   1.350       .  A
N2975      N2976   1.323       .  A
N2976      C2981   1.354       .  A
N2977      N2978   1.316       .  A
N2977     Mn2979   2.188       .  S
N2978      C2980   1.348       .  A
Mn2979    Cl3003   2.508       .  S
C2980      C3765   1.464       .  S
C2981      C3781   1.476       .  S
N2982      N2983   1.327       .  A
N2982      N2988   1.314       .  A
N2982     Mn2990   2.233       .  S
N2983      C2991   1.361       .  A
N2984      N2986   1.314       .  A
N2984      N2985   1.314       .  A
N2985      C2992   1.349       .  A
N2986      N2987   1.329       .  A
N2987      C2992   1.364       .  A
N2988      N2989   1.315       .  A
N2988     Mn3002   2.187       .  S
N2989      C2991   1.351       .  A
Mn2990    Cl3003   2.584       .  S
C2991      C3666   1.503       .  S
C2992      C3682   1.506       .  S
N2993      N2994   1.323       .  A
N2993      N2999   1.315       .  A
N2994      C3004   1.356       .  A
N2995      N2996   1.313       .  A
N2995      N2997   1.314       .  A
N2995     Mn3002   2.175       .  S
N2996      C3005   1.347       .  A
N2997      N2998   1.325       .  A
N2997     Mn3001   2.215       .  S
N2998      C3005   1.357       .  A
N2999      N3000   1.314       .  A
N3000      C3004   1.347       .  A
Mn3001    Cl3003   2.580       .  S
Mn3002    Cl3003   2.510       .  S
C3004      C3717   1.470       .  S
C3005      C3698   1.477       .  S
N3006      C3011   1.354       .  A
N3006      C3010   1.352       .  A
N3006      H3038   1.039       .  S
N3007      C3014   1.352       .  A
N3007      C3015   1.353       .  A
N3008      C3013   1.352       .  A
N3008      C3012   1.351       .  A
N3008      H3039   1.039       .  S
N3009      C3016   1.347       .  A
N3009      C3017   1.346       .  A
C3010      C3018   1.387       .  A
C3010      C3026   1.414       .  A
C3011      C3027   1.417       .  A
C3011      C3019   1.387       .  A
C3012      C3020   1.387       .  A
C3012      C3029   1.412       .  A
C3013      C3028   1.414       .  A
C3013      C3021   1.387       .  A
C3014      C3026   1.416       .  A
C3014      C3022   1.387       .  A
C3015      C3029   1.415       .  A
C3015      C3023   1.385       .  A
C3016      C3024   1.386       .  A
C3016      C3027   1.406       .  A
C3017      C3025   1.386       .  A
C3017      C3028   1.406       .  A
C3018      C3019   1.378       .  A
C3018      H3030   1.082       .  S
C3019      H3031   1.082       .  S
C3020      C3021   1.378       .  A
C3020      H3032   1.082       .  S
C3021      H3033   1.082       .  S
C3022      C3023   1.378       .  A
C3022      H3034   1.082       .  S
C3023      H3035   1.082       .  S
C3024      C3025   1.375       .  A
C3024      H3036   1.082       .  S
C3025      H3037   1.082       .  S
C3026      C3685   1.492       .  S
C3027      C3650   1.485       .  S
C3028      C3634   1.481       .  S
C3029      C3669   1.492       .  S
N3040      C3045   1.351       .  A
N3040      C3044   1.350       .  A
N3040      H3072   1.039       .  S
N3041      C3048   1.351       .  A
N3041      C3049   1.351       .  A
N3042      C3047   1.353       .  A
N3042      C3046   1.350       .  A
N3042      H3073   1.040       .  S
N3043      C3050   1.344       .  A
N3043      C3051   1.345       .  A
C3044      C3052   1.386       .  A
C3044      C3060   1.410       .  A
C3045      C3061   1.414       .  A
C3045      C3053   1.388       .  A
C3046      C3054   1.387       .  A
C3046      C3063   1.412       .  A
C3047      C3062   1.416       .  A
C3047      C3055   1.387       .  A
C3048      C3060   1.412       .  A
C3048      C3056   1.386       .  A
C3049      C3063   1.411       .  A
C3049      C3057   1.386       .  A
C3050      C3058   1.387       .  A
C3050      C3061   1.405       .  A
C3051      C3059   1.386       .  A
C3051      C3062   1.404       .  A
C3052      C3053   1.377       .  A
C3052      H3064   1.082       .  S
C3053      H3065   1.082       .  S
C3054      C3055   1.379       .  A
C3054      H3066   1.082       .  S
C3055      H3067   1.082       .  S
C3056      C3057   1.377       .  A
C3056      H3068   1.082       .  S
C3057      H3069   1.082       .  S
C3058      C3059   1.376       .  A
C3058      H3070   1.082       .  S
C3059      H3071   1.082       .  S
C3060      C3621   1.486       .  S
C3061      C3714   1.479       .  S
C3062      C3701   1.482       .  S
C3063      C3602   1.486       .  S
N3074      N3075   1.311       .  A
N3074      N3080   1.316       .  A
N3075      C3082   1.343       .  A
N3076      N3078   1.318       .  A
N3076      N3077   1.319       .  A
N3076     Mn3092   2.205   1_565  S
N3077      C3083   1.348       .  A
N3078      N3079   1.329       .  A
N3079      C3083   1.362       .  A
N3080      N3081   1.335       .  A
N3080     Mn3092   2.260   1_565  S
N3081      C3082   1.370       .  A
C3082      C3813   1.505       .  S
C3083      C3541   1.490       .  S
N3084      N3090   1.317       .  A
N3084      N3085   1.328       .  A
N3085      C3093   1.361       .  A
N3086      N3087   1.339       .  A
N3086      N3088   1.317       .  A
N3087      C3094   1.373       .  A
N3088      N3089   1.307       .  A
N3089      C3094   1.336       .  A
N3090      N3091   1.313       .  A
N3091      C3093   1.345       .  A
C3093      C3570   1.481       .  S
C3094      C3794   1.508       .  S
N3095      N3096   1.330       .  A
N3095      N3101   1.319       .  A
N3095     Mn3103   2.246       .  S
N3096      C3104   1.362       .  A
N3097      N3099   1.319       .  A
N3097      N3098   1.332       .  A
N3097     Mn3115   2.247   1_565  S
N3098      C3105   1.363       .  A
N3099      N3100   1.316       .  A
N3099     Mn3103   2.199       .  S
N3100      C3105   1.345       .  A
N3101      N3102   1.318       .  A
N3101     Mn3115   2.201   1_565  S
N3102      C3104   1.346       .  A
Mn3103    Cl3116   2.539   1_565  S
C3104      C3557   1.488       .  S
C3105      C3746   1.488       .  S
N3106      N3107   1.314       .  A
N3106      N3112   1.317       .  A
N3106     Mn3114   2.178       .  S
N3107      C3117   1.340       .  A
N3108      N3109   1.314       .  A
N3108      N3110   1.316       .  A
N3109      C3118   1.345       .  A
N3110      N3111   1.327       .  A
N3110     Mn3114   2.213       .  S
N3111      C3118   1.358       .  A
N3112      N3113   1.335       .  A
N3113      C3117   1.368       .  A
Mn3115    Cl3116   2.569       .  S
C3117      C3733   1.491       .  S
C3118      C3586   1.475       .  S
N3119      N3120   1.327       .  A
N3119      N3125   1.314       .  A
N3120      C3127   1.357       .  A
N3121      N3123   1.314       .  A
N3121      N3122   1.312       .  A
N3121     Mn3137   2.175       .  S
N3122      C3128   1.348       .  A
N3123      N3124   1.326       .  A
N3123     Mn3148   2.210       .  S
N3124      C3128   1.356       .  A
N3125      N3126   1.312       .  A
N3126      C3127   1.347       .  A
C3127      C3525   1.473       .  S
C3128      C3509   1.468       .  S
N3129      N3135   1.315       .  A
N3129      N3130   1.328       .  A
N3129     Mn3159   2.243   1_556  S
N3130      C3138   1.364       .  A
N3131      N3132   1.313       .  A
N3131      N3133   1.314       .  A
N3132      C3139   1.345       .  A
N3133      N3134   1.328       .  A
N3134      C3139   1.365       .  A
N3135      N3136   1.316       .  A
N3135     Mn3137   2.189       .  S
N3136      C3138   1.348       .  A
Mn3137    Cl3161   2.516       .  S
C3138      C3474   1.506       .  S
C3139      C3493   1.502       .  S
N3140      N3141   1.324       .  A
N3140      N3146   1.316       .  A
N3140     Mn3148   2.201   1_554  S
N3141      C3149   1.353       .  A
N3142      N3144   1.316       .  A
N3142      N3143   1.316       .  A
N3143      C3150   1.349       .  A
N3144      N3145   1.322       .  A
N3145      C3150   1.353       .  A
N3146      N3147   1.319       .  A
N3146     Mn3160   2.214       .  S
N3147      C3149   1.352       .  A
Mn3148    Cl3161   2.581       .  S
C3149      C3413   1.472       .  S
C3150      C3426   1.465       .  S
N3151      N3152   1.326       .  A
N3151      N3157   1.316       .  A
N3152      C3162   1.359       .  A
N3153      N3154   1.316       .  A
N3153      N3155   1.317       .  A
N3153     Mn3160   2.191       .  S
N3154      C3163   1.348       .  A
N3155      N3156   1.326       .  A
N3155     Mn3159   2.235       .  S
N3156      C3163   1.361       .  A
N3157      N3158   1.316       .  A
N3158      C3162   1.351       .  A
Mn3159    Cl3161   2.586   1_554  S
Mn3160    Cl3161   2.521   1_554  S
C3162      C3458   1.494       .  S
C3163      C3442   1.495       .  S
N3164      C3169   1.357       .  A
N3164      C3168   1.356       .  A
N3164      H3196   1.036       .  S
N3165      C3172   1.354       .  A
N3165      C3173   1.354       .  A
N3166      C3171   1.357       .  A
N3166      C3170   1.357       .  A
N3166      H3197   1.037       .  S
N3167      C3174   1.353       .  A
N3167      C3175   1.353       .  A
C3168      C3176   1.389       .  A
C3168      C3184   1.424       .  A
C3169      C3185   1.418       .  A
C3169      C3177   1.386       .  A
C3170      C3178   1.388       .  A
C3170      C3187   1.423       .  A
C3171      C3186   1.420       .  A
C3171      C3179   1.386       .  A
C3172      C3184   1.418       .  A
C3172      C3180   1.386       .  A
C3173      C3187   1.419       .  A
C3173      C3181   1.386       .  A
C3174      C3182   1.386       .  A
C3174      C3185   1.416       .  A
C3175      C3183   1.387       .  A
C3175      C3186   1.417       .  A
C3176      C3177   1.371       .  A
C3176      H3188   1.081       .  S
C3177      H3189   1.082       .  S
C3178      C3179   1.372       .  A
C3178      H3190   1.082       .  S
C3179      H3191   1.082       .  S
C3180      C3181   1.371       .  A
C3180      H3192   1.082       .  S
C3181      H3193   1.082       .  S
C3182      C3183   1.375       .  A
C3182      H3194   1.083       .  S
C3183      H3195   1.083       .  S
C3184      C3490   1.497       .  S
C3185      C3394   1.496       .  S
C3186      C3378   1.497       .  S
C3187      C3477   1.499       .  S
N3198      C3203   1.349       .  A
N3198      C3202   1.349       .  A
N3198      H3230   1.045       .  S
N3199      C3206   1.350       .  A
N3199      C3207   1.342       .  A
N3200      C3205   1.358       .  A
N3200      C3204   1.360       .  A
N3200      H3231   1.040       .  S
N3201      C3208   1.353       .  A
N3201      C3209   1.344       .  A
C3202      C3210   1.386       .  A
C3202      C3218   1.396       .  A
C3203      C3219   1.394       .  A
C3203      C3211   1.386       .  A
C3204      C3212   1.387       .  A
C3204      C3221   1.425       .  A
C3205      C3220   1.424       .  A
C3205      C3213   1.387       .  A
C3206      C3218   1.414       .  A
C3206      C3214   1.385       .  A
C3207      C3221   1.413       .  A
C3207      C3215   1.390       .  A
C3208      C3216   1.384       .  A
C3208      C3219   1.415       .  A
C3209      C3217   1.390       .  A
C3209      C3220   1.415       .  A
C3210      C3211   1.363       .  A
C3210      H3222   1.083       .  S
C3211      H3223   1.083       .  S
C3212      C3213   1.379       .  A
C3212      H3224   1.082       .  S
C3213      H3225   1.082       .  S
C3214      C3215   1.379       .  A
C3214      H3226   1.082       .  S
C3215      H3227   1.082       .  S
C3216      C3217   1.379       .  A
C3216      H3228   1.082       .  S
C3217      H3229   1.082       .  S
C3218      C3506   1.496       .  S
C3219      C3522   1.496       .  S
C3220      C3362   1.490       .  S
C3221      C3349   1.493       .  S
N3232      N3233   1.327       .  A
N3232      N3238   1.313       .  A
N3232     Mn3261   2.233   1_565  S
N3233      C3240   1.363       .  A
N3234      N3236   1.312       .  A
N3234      N3235   1.316       .  A
N3235      C3241   1.348       .  A
N3236      N3237   1.324       .  A
N3237      C3241   1.360       .  A
N3238      N3239   1.314       .  A
N3238     Mn3250   2.176   1_565  S
N3239      C3240   1.346       .  A
C3240      C3618   1.498       .  S
C3241      C3605   1.496       .  S
N3242      N3248   1.311       .  A
N3242      N3243   1.324       .  A
N3243      C3251   1.356       .  A
N3244      N3245   1.314       .  A
N3244      N3246   1.313       .  A
N3245      C3252   1.347       .  A
N3246      N3247   1.326       .  A
N3246     Mn3272   2.216   1_565  S
N3247      C3252   1.359       .  A
N3248      N3249   1.313       .  A
N3249      C3251   1.348       .  A
Mn3250    Cl3274   2.530       .  S
C3251      C3637   1.473       .  S
C3252      C3653   1.478       .  S
N3253      N3254   1.319       .  A
N3253      N3259   1.317       .  A
N3254      C3262   1.353       .  A
N3255      N3257   1.319       .  A
N3255      N3256   1.323       .  A
N3255     Mn3273   2.222   1_565  S
N3256      C3263   1.355       .  A
N3257      N3258   1.321       .  A
N3257     Mn3261   2.212   1_565  S
N3258      C3263   1.353       .  A
N3259      N3260   1.322       .  A
N3260      C3262   1.355       .  A
Mn3261    Cl3274   2.559       .  S
C3262      C3346   1.477       .  S
C3263      C3381   1.490       .  S
N3264      N3265   1.320       .  A
N3264      N3270   1.320       .  A
N3264     Mn3272   2.202   1_565  S
N3265      C3275   1.350       .  A
N3266      N3267   1.324       .  A
N3266      N3268   1.317       .  A
N3267      C3276   1.358       .  A
N3268      N3269   1.318       .  A
N3269      C3276   1.353       .  A
N3270      N3271   1.325       .  A
N3271      C3275   1.359       .  A
Mn3273    Cl3274   2.545       .  S
C3275      C3397   1.490       .  S
C3276      C3365   1.477       .  S
N3277      C3282   1.352       .  A
N3277      C3281   1.346       .  A
N3277      H3309   1.041       .  S
N3278      C3285   1.350       .  A
N3278      C3286   1.351       .  A
N3279      C3284   1.353       .  A
N3279      C3283   1.356       .  A
N3279      H3310   1.041       .  S
N3280      C3287   1.352       .  A
N3280      C3288   1.348       .  A
C3281      C3289   1.386       .  A
C3281      C3297   1.406       .  A
C3282      C3298   1.413       .  A
C3282      C3290   1.387       .  A
C3283      C3291   1.387       .  A
C3283      C3300   1.420       .  A
C3284      C3299   1.417       .  A
C3284      C3292   1.387       .  A
C3285      C3297   1.414       .  A
C3285      C3293   1.388       .  A
C3286      C3300   1.409       .  A
C3286      C3294   1.385       .  A
C3287      C3295   1.386       .  A
C3287      C3298   1.415       .  A
C3288      C3296   1.386       .  A
C3288      C3299   1.408       .  A
C3289      C3290   1.379       .  A
C3289      H3301   1.082       .  S
C3290      H3302   1.082       .  S
C3291      C3292   1.380       .  A
C3291      H3303   1.082       .  S
C3292      H3304   1.082       .  S
C3293      C3294   1.375       .  A
C3293      H3305   1.082       .  S
C3294      H3306   1.082       .  S
C3295      C3296   1.374       .  A
C3295      H3307   1.082       .  S
C3296      H3308   1.082       .  S
C3297      C3429   1.480       .  S
C3298      C3410   1.498       .  S
C3299      C3589   1.486       .  S
C3300      C3573   1.495       .  S
N3311      C3316   1.358       .  A
N3311      C3315   1.360       .  A
N3311      H3343   1.040       .  S
N3312      C3319   1.352       .  A
N3312      C3320   1.352       .  A
N3313      C3318   1.354       .  A
N3313      C3317   1.354       .  A
N3313      H3344   1.036       .  S
N3314      C3321   1.354       .  A
N3314      C3322   1.355       .  A
C3315      C3323   1.386       .  A
C3315      C3331   1.426       .  A
C3316      C3332   1.427       .  A
C3316      C3324   1.387       .  A
C3317      C3325   1.387       .  A
C3317      C3334   1.419       .  A
C3318      C3333   1.419       .  A
C3318      C3326   1.388       .  A
C3319      C3331   1.414       .  A
C3319      C3327   1.387       .  A
C3320      C3334   1.416       .  A
C3320      C3328   1.387       .  A
C3321      C3329   1.387       .  A
C3321      C3332   1.421       .  A
C3322      C3330   1.386       .  A
C3322      C3333   1.420       .  A
C3323      C3324   1.383       .  A
C3323      H3335   1.082       .  S
C3324      H3336   1.082       .  S
C3325      C3326   1.377       .  A
C3325      H3337   1.082       .  S
C3326      H3338   1.082       .  S
C3327      C3328   1.370       .  A
C3327      H3339   1.082       .  S
C3328      H3340   1.082       .  S
C3329      C3330   1.373       .  A
C3329      H3341   1.082       .  S
C3330      H3342   1.082       .  S
C3331      C3538   1.505       .  S
C3332      C3554   1.510       .  S
C3333      C3445   1.495       .  S
C3334      C3461   1.491       .  S
C3345      C3346   1.403       .  A
C3345      C3350   1.405       .  A
C3345      H3352   1.084       .  S
C3346      C3347   1.412       .  A
C3347      C3348   1.409       .  A
C3347      C3354   1.516       .  S
C3348      C3349   1.407       .  A
C3348      H3353   1.083       .  S
C3349      C3350   1.418       .  A
C3350      C3351   1.519       .  S
C3351      F3355   1.385       .  S
C3351      F3356   1.383       .  S
C3351      F3357   1.379       .  S
C3354      F3358   1.383       .  S
C3354      F3359   1.383       .  S
C3354      F3360   1.384       .  S
C3361      C3362   1.406       .  A
C3361      C3366   1.411       .  A
C3361      H3368   1.083       .  S
C3362      C3363   1.415       .  A
C3363      C3364   1.404       .  A
C3363      C3370   1.517       .  S
C3364      C3365   1.401       .  A
C3364      H3369   1.084       .  S
C3365      C3366   1.414       .  A
C3366      C3367   1.515       .  S
C3367      F3371   1.385       .  S
C3367      F3372   1.383       .  S
C3367      F3373   1.383       .  S
C3370      F3374   1.380       .  S
C3370      F3375   1.383       .  S
C3370      F3376   1.383       .  S
C3377      C3378   1.403       .  A
C3377      C3382   1.410       .  A
C3377      H3384   1.083       .  S
C3378      C3379   1.415       .  A
C3379      C3380   1.411       .  A
C3379      C3386   1.519       .  S
C3380      C3381   1.408       .  A
C3380      H3385   1.083       .  S
C3381      C3382   1.418       .  A
C3382      C3383   1.518       .  S
C3383      F3387   1.384       .  S
C3383      F3388   1.382       .  S
C3383      F3389   1.383       .  S
C3386      F3390   1.384       .  S
C3386      F3391   1.383       .  S
C3386      F3392   1.382       .  S
C3393      C3394   1.402       .  A
C3393      C3398   1.410       .  A
C3393      H3400   1.083       .  S
C3394      C3395   1.415       .  A
C3395      C3396   1.411       .  A
C3395      C3402   1.519       .  S
C3396      C3397   1.407       .  A
C3396      H3401   1.083       .  S
C3397      C3398   1.420       .  A
C3398      C3399   1.519       .  S
C3399      F3403   1.385       .  S
C3399      F3404   1.383       .  S
C3399      F3405   1.382       .  S
C3402      F3406   1.381       .  S
C3402      F3407   1.383       .  S
C3402      F3408   1.385       .  S
C3409      C3410   1.408       .  A
C3409      C3414   1.406       .  A
C3409      H3416   1.083       .  S
C3410      C3411   1.422       .  A
C3411      C3412   1.407       .  A
C3411      C3418   1.519       .  S
C3412      C3413   1.401       .  A
C3412      H3417   1.084       .  S
C3413      C3414   1.410       .  A
C3414      C3415   1.518       .  S
C3415      F3419   1.384       .  S
C3415      F3420   1.381       .  S
C3415      F3421   1.383       .  S
C3418      F3422   1.383       .  S
C3418      F3423   1.383       .  S
C3418      F3424   1.384       .  S
C3425      C3426   1.400       .  A
C3425      C3430   1.402       .  A
C3425      H3432   1.084       .  S
C3426      C3427   1.413       .  A
C3427      C3428   1.405       .  A
C3427      C3434   1.517       .  S
C3428      C3429   1.402       .  A
C3428      H3433   1.083       .  S
C3429      C3430   1.415       .  A
C3430      C3431   1.520       .  S
C3431      F3435   1.385       .  S
C3431      F3436   1.382       .  S
C3431      F3437   1.382       .  S
C3434      F3438   1.383       .  S
C3434      F3439   1.383       .  S
C3434      F3440   1.385       .  S
C3441      C3442   1.407       .  A
C3441      C3446   1.411       .  A
C3441      H3448   1.082       .  S
C3442      C3443   1.427       .  A
C3443      C3444   1.406       .  A
C3443      C3450   1.520       .  S
C3444      C3445   1.398       .  A
C3444      H3449   1.083       .  S
C3445      C3446   1.416       .  A
C3446      C3447   1.516       .  S
C3447      F3451   1.385       .  S
C3447      F3452   1.382       .  S
C3447      F3453   1.382       .  S
C3450      F3454   1.379       .  S
C3450      F3455   1.382       .  S
C3450      F3456   1.385       .  S
C3457      C3458   1.409       .  A
C3457      C3462   1.403       .  A
C3457      H3464   1.082       .  S
C3458      C3459   1.423       .  A
C3459      C3460   1.413       .  A
C3459      C3466   1.518       .  S
C3460      C3461   1.403       .  A
C3460      H3465   1.083       .  S
C3461      C3462   1.412       .  A
C3462      C3463   1.521       .  S
C3463      F3467   1.384       .  S
C3463      F3468   1.382       .  S
C3463      F3469   1.381       .  S
C3466      F3470   1.383       .  S
C3466      F3471   1.383       .  S
C3466      F3472   1.385       .  S
C3473      C3474   1.411       .  A
C3473      C3478   1.413       .  A
C3473      H3480   1.082       .  S
C3474      C3475   1.433       .  A
C3475      C3476   1.408       .  A
C3475      C3482   1.523       .  S
C3476      C3477   1.397       .  A
C3476      H3481   1.083       .  S
C3477      C3478   1.414       .  A
C3478      C3479   1.518       .  S
C3479      F3483   1.384       .  S
C3479      F3484   1.383       .  S
C3479      F3485   1.382       .  S
C3482      F3486   1.383       .  S
C3482      F3487   1.380       .  S
C3482      F3488   1.385       .  S
C3489      C3490   1.397       .  A
C3489      C3494   1.406       .  A
C3489      H3496   1.083       .  S
C3490      C3491   1.416       .  A
C3491      C3492   1.413       .  A
C3491      C3498   1.518       .  S
C3492      C3493   1.409       .  A
C3492      H3497   1.082       .  S
C3493      C3494   1.433       .  A
C3494      C3495   1.525       .  S
C3495      F3499   1.385       .  S
C3495      F3500   1.380       .  S
C3495      F3501   1.383       .  S
C3498      F3502   1.381       .  S
C3498      F3503   1.383       .  S
C3498      F3504   1.385       .  S
C3505      C3506   1.411       .  A
C3505      C3510   1.408       .  A
C3505      H3512   1.083       .  S
C3506      C3507   1.425       .  A
C3507      C3508   1.401       .  A
C3507      C3514   1.520       .  S
C3508      C3509   1.397       .  A
C3508      H3513   1.084       .  S
C3509      C3510   1.408       .  A
C3510      C3511   1.514       .  S
C3511      F3515   1.385       .  S
C3511      F3516   1.383       .  S
C3511      F3517   1.383       .  S
C3514      F3518   1.381       .  S
C3514      F3519   1.378       .  S
C3514      F3520   1.385       .  S
C3521      C3522   1.410       .  A
C3521      C3526   1.410       .  A
C3521      H3528   1.083       .  S
C3522      C3523   1.425       .  A
C3523      C3524   1.402       .  A
C3523      C3530   1.522       .  S
C3524      C3525   1.398       .  A
C3524      H3529   1.084       .  S
C3525      C3526   1.410       .  A
C3526      C3527   1.515       .  S
C3527      F3531   1.385       .  S
C3527      F3532   1.383       .  S
C3527      F3533   1.383       .  S
C3530      F3534   1.378       .  S
C3530      F3535   1.382       .  S
C3530      F3536   1.385       .  S
C3537      C3538   1.406       .  A
C3537      C3542   1.414       .  A
C3537      H3544   1.083       .  S
C3538      C3539   1.422       .  A
C3539      C3540   1.414       .  A
C3539      C3546   1.522       .  S
C3540      C3541   1.404       .  A
C3540      H3545   1.083       .  S
C3541      C3542   1.416       .  A
C3542      C3543   1.517       .  S
C3543      F3547   1.384       .  S
C3543      F3548   1.383       .  S
C3543      F3549   1.383       .  S
C3546      F3550   1.384       .  S
C3546      F3551   1.383       .  S
C3546      F3552   1.379       .  S
C3553      C3554   1.409       .  A
C3553      C3558   1.411       .  A
C3553      H3560   1.083       .  S
C3554      C3555   1.422       .  A
C3555      C3556   1.416       .  A
C3555      C3562   1.519       .  S
C3556      C3557   1.405       .  A
C3556      H3561   1.083       .  S
C3557      C3558   1.413       .  A
C3558      C3559   1.516       .  S
C3559      F3563   1.385       .  S
C3559      F3564   1.380       .  S
C3559      F3565   1.383       .  S
C3562      F3566   1.380       .  S
C3562      F3567   1.383       .  S
C3562      F3568   1.385       .  S
C3569      C3570   1.401       .  A
C3569      C3574   1.402       .  A
C3569      H3576   1.084       .  S
C3570      C3571   1.416       .  A
C3571      C3572   1.417       .  A
C3571      C3578   1.517       .  S
C3572      C3573   1.409       .  A
C3572      H3577   1.083       .  S
C3573      C3574   1.417       .  A
C3574      C3575   1.520       .  S
C3575      F3579   1.382       .  S
C3575      F3580   1.382       .  S
C3575      F3581   1.381       .  S
C3578      F3582   1.383       .  S
C3578      F3583   1.384       .  S
C3578      F3584   1.384       .  S
C3585      C3586   1.405       .  A
C3585      C3590   1.412       .  A
C3585      H3592   1.083       .  S
C3586      C3587   1.415       .  A
C3587      C3588   1.399       .  A
C3587      C3594   1.516       .  S
C3588      C3589   1.400       .  A
C3588      H3593   1.084       .  S
C3589      C3590   1.415       .  A
C3590      C3591   1.516       .  S
C3591      F3595   1.384       .  S
C3591      F3596   1.383       .  S
C3591      F3597   1.382       .  S
C3594      F3598   1.384       .  S
C3594      F3599   1.382       .  S
C3594      F3600   1.384       .  S
C3601      C3602   1.397       .  A
C3601      C3606   1.404       .  A
C3601      H3608   1.083       .  S
C3602      C3603   1.411       .  A
C3603      C3604   1.409       .  A
C3603      C3610   1.518       .  S
C3604      C3605   1.411       .  A
C3604      H3609   1.082       .  S
C3605      C3606   1.430       .  A
C3606      C3607   1.524       .  S
C3607      F3611   1.385       .  S
C3607      F3612   1.380       .  S
C3607      F3613   1.383       .  S
C3610      F3614   1.381       .  S
C3610      F3615   1.383       .  S
C3610      F3616   1.384       .  S
C3617      C3618   1.411       .  A
C3617      C3622   1.411       .  A
C3617      H3624   1.082       .  S
C3618      C3619   1.433       .  A
C3619      C3620   1.403       .  A
C3619      C3626   1.525       .  S
C3620      C3621   1.395       .  A
C3620      H3625   1.083       .  S
C3621      C3622   1.411       .  A
C3622      C3623   1.516       .  S
C3623      F3627   1.384       .  S
C3623      F3628   1.383       .  S
C3623      F3629   1.382       .  S
C3626      F3630   1.383       .  S
C3626      F3631   1.382       .  S
C3626      F3632   1.386       .  S
C3633      C3634   1.404       .  A
C3633      C3638   1.408       .  A
C3633      H3640   1.083       .  S
C3634      C3635   1.413       .  A
C3635      C3636   1.399       .  A
C3635      C3642   1.520       .  S
C3636      C3637   1.403       .  A
C3636      H3641   1.083       .  S
C3637      C3638   1.414       .  A
C3638      C3639   1.517       .  S
C3639      F3643   1.385       .  S
C3639      F3644   1.383       .  S
C3639      F3645   1.383       .  S
C3642      F3646   1.381       .  S
C3642      F3647   1.382       .  S
C3649      C3650   1.403       .  A
C3649      C3654   1.408       .  A
C3649      H3656   1.083       .  S
C3650      C3651   1.414       .  A
C3651      C3652   1.403       .  A
C3651      C3658   1.520       .  S
C3652      C3653   1.405       .  A
C3652      H3657   1.083       .  S
C3653      C3654   1.416       .  A
C3654      C3655   1.516       .  S
C3655      F3659   1.385       .  S
C3655      F3660   1.383       .  S
C3655      F3661   1.382       .  S
C3658      F3663   1.382       .  S
C3665      C3666   1.411       .  A
C3665      C3670   1.403       .  A
C3665      H3672   1.081       .  S
C3666      C3667   1.426       .  A
C3667      C3668   1.416       .  A
C3667      C3674   1.518       .  S
C3668      C3669   1.403       .  A
C3668      H3673   1.083       .  S
C3669      C3670   1.413       .  A
C3670      C3671   1.523       .  S
C3671      F3675   1.385       .  S
C3671      F3676   1.382       .  S
C3671      F3677   1.381       .  S
C3674      F3678   1.383       .  S
C3674      F3679   1.383       .  S
C3674      F3680   1.385       .  S
C3681      C3682   1.413       .  A
C3681      C3686   1.404       .  A
C3681      H3688   1.081       .  S
C3682      C3683   1.424       .  A
C3683      C3684   1.414       .  A
C3683      C3690   1.512       .  S
C3684      C3685   1.402       .  A
C3684      H3689   1.083       .  S
C3685      C3686   1.412       .  A
C3686      C3687   1.522       .  S
C3687      F3691   1.385       .  S
C3687      F3692   1.381       .  S
C3687      F3693   1.382       .  S
C3690      F3694   1.383       .  S
C3690      F3695   1.380       .  S
C3690      F3696   1.385       .  S
C3697      C3698   1.404       .  A
C3697      C3702   1.400       .  A
C3697      H3704   1.084       .  S
C3698      C3699   1.416       .  A
C3699      C3700   1.409       .  A
C3699      C3706   1.515       .  S
C3700      C3701   1.403       .  A
C3700      H3705   1.083       .  S
C3701      C3702   1.413       .  A
C3702      C3703   1.518       .  S
C3703      F3707   1.385       .  S
C3703      F3708   1.382       .  S
C3703      F3709   1.380       .  S
C3706      F3710   1.383       .  S
C3706      F3711   1.383       .  S
C3706      F3712   1.385       .  S
C3713      C3714   1.401       .  A
C3713      C3718   1.405       .  A
C3713      H3720   1.083       .  S
C3714      C3715   1.413       .  A
C3715      C3716   1.401       .  A
C3715      C3722   1.519       .  S
C3716      C3717   1.403       .  A
C3716      H3721   1.084       .  S
C3717      C3718   1.415       .  A
C3718      C3719   1.517       .  S
C3719      F3723   1.384       .  S
C3719      F3724   1.382       .  S
C3719      F3725   1.384       .  S
C3722      F3726   1.380       .  S
C3722      F3727   1.382       .  S
C3722      F3728   1.384       .  S
C3729      C3730   1.405       .  A
C3729      C3734   1.416       .  A
C3729      H3736   1.083       .  S
C3730      C3731   1.421       .  A
C3731      C3732   1.412       .  A
C3731      C3738   1.523       .  S
C3732      C3733   1.404       .  A
C3732      H3737   1.083       .  S
C3733      C3734   1.418       .  A
C3734      C3735   1.514       .  S
C3735      F3739   1.385       .  S
C3735      F3740   1.383       .  S
C3735      F3741   1.382       .  S
C3738      F3742   1.384       .  S
C3738      F3743   1.383       .  S
C3738      F3744   1.378       .  S
C3745      C3746   1.406       .  A
C3745      C3750   1.418       .  A
C3745      H3752   1.083       .  S
C3746      C3747   1.415       .  A
C3747      C3748   1.409       .  A
C3747      C3754   1.519       .  S
C3748      C3749   1.406       .  A
C3748      H3753   1.083       .  S
C3749      C3750   1.420       .  A
C3750      C3751   1.517       .  S
C3751      F3755   1.384       .  S
C3751      F3756   1.381       .  S
C3751      F3757   1.384       .  S
C3754      F3758   1.380       .  S
C3754      F3759   1.383       .  S
C3754      F3760   1.384       .  S
C3761      C3762   1.404       .  A
C3761      C3766   1.403       .  A
C3761      H3768   1.083       .  S
C3762      C3763   1.420       .  A
C3763      C3764   1.402       .  A
C3763      C3770   1.516       .  S
C3764      C3765   1.398       .  A
C3764      H3769   1.085       .  S
C3765      C3766   1.412       .  A
C3766      C3767   1.518       .  S
C3767      F3771   1.385       .  S
C3767      F3772   1.381       .  S
C3767      F3773   1.383       .  S
C3770      F3774   1.383       .  S
C3770      F3775   1.382       .  S
C3770      F3776   1.384       .  S
C3777      C3778   1.402       .  A
C3777      C3782   1.408       .  A
C3777      H3784   1.083       .  S
C3778      C3779   1.416       .  A
C3779      C3780   1.405       .  A
C3779      C3786   1.519       .  S
C3780      C3781   1.402       .  A
C3780      H3785   1.084       .  S
C3781      C3782   1.416       .  A
C3782      C3783   1.517       .  S
C3783      F3787   1.384       .  S
C3783      F3788   1.384       .  S
C3783      F3789   1.383       .  S
C3786      F3790   1.383       .  S
C3786      F3791   1.381       .  S
C3786      F3792   1.384       .  S
C3793      C3794   1.410       .  A
C3793      C3798   1.422       .  A
C3793      H3800   1.082       .  S
C3794      C3795   1.436       .  A
C3795      C3796   1.404       .  A
C3795      C3802   1.524       .  S
C3796      C3797   1.391       .  A
C3796      H3801   1.083       .  S
C3797      C3798   1.419       .  A
C3798      C3799   1.516       .  S
C3799      F3803   1.384       .  S
C3799      F3804   1.383       .  S
C3799      F3805   1.383       .  S
C3802      F3806   1.383   1_655  S
C3802      F3807   1.383   1_655  S
C3802      F3808   1.384   1_655  S
C3809      C3810   1.412       .  A
C3809      C3814   1.421       .  A
C3809      H3816   1.083       .  S
C3810      C3811   1.414       .  A
C3811      C3812   1.405       .  A
C3811      C3818   1.522       .  S
C3812      C3813   1.412       .  A
C3812      H3817   1.080       .  S
C3813      C3814   1.419       .  A
C3814      C3815   1.515       .  S
C3815      F3819   1.385       .  S
C3815      F3820   1.383       .  S
C3815      F3821   1.383       .  S
C3818      F3822   1.381       .  S
C3818      F3823   1.382       .  S
C3818      F3824   1.385   1_655  S
C3825      C3826   1.409       .  A
C3825      C3830   1.410       .  A
C3825      H3832   1.082       .  S
C3826      C3827   1.430       .  A
C3827      C3828   1.399       .  A
C3827      C3834   1.525       .  S
C3828      C3829   1.395       .  A
C3828      H3833   1.084       .  S
C3829      C3830   1.414       .  A
C3830      C3831   1.517       .  S
C3831      F3835   1.385       .  S
C3831      F3836   1.381       .  S
C3831      F3837   1.383       .  S
C3834      F3838   1.382       .  S
C3834      F3839   1.384       .  S
C3834      F3840   1.385       .  S
C3841      C3842   1.401       .  A
C3841      C3846   1.409       .  A
C3841      H3848   1.083       .  S
C3842      C3843   1.410       .  A
C3843      C3844   1.399       .  A
C3843      C3850   1.522       .  S
C3844      C3845   1.410       .  A
C3844      H3849   1.082       .  S
C3845      C3846   1.422       .  A
C3846      C3847   1.516       .  S
C3847      F3851   1.385       .  S
C3847      F3852   1.378       .  S
C3847      F3853   1.383       .  S
C3850      F3854   1.381       .  S
C3850      F3855   1.382       .  S
C3850      F3856   1.384       .  S
