geometry optimzed in LAMMPS
_audit_creation_date              2020-11-30 
_audit_creation_method            'lammps2cif' 
_symmetry_space_group_name_H-M    'P1' 
_symmetry_Int_Tables_number       1 
_symmetry_cell_setting            triclinic 
loop_ 
_symmetry_equiv_pos_as_xyz 
  x,y,z 
_cell_length_a                    38.3643544691455 
_cell_length_b                    38.568758693257585 
_cell_length_c                    48.77867381774913 
_cell_angle_alpha                 90.07927300501369 
_cell_angle_beta                  90.24661752071025 
_cell_angle_gamma                 120.11368899183209 
loop_ 
_atom_site_label 
_atom_site_type_symbol 
_atom_site_fract_x 
_atom_site_fract_y 
_atom_site_fract_z 
_atom_site_charge 
C1          C  0.29319887  0.49737838  0.71780026     0.02730
C2          C  0.33032828  0.01304625  0.70416767    -0.13420
C3          C  0.36518656  0.04460959  0.71548937     0.00230
C4          C  0.36345526  0.06394756  0.73878465    -0.11950
C5          C  0.32815582  0.04866415  0.75375511     0.02720
C6          C  0.29231797  0.01538858  0.74313559    -0.11370
H7          H  0.33332807  0.49852593  0.68602267     0.08320
H8          H  0.39108812  0.08950538  0.74634209     0.05850
H9          H  0.26486159  0.00262642  0.75499487     0.05690
C10         C  0.09387015  0.13200486  0.67432328     0.02730
C11         C  0.05703969  0.11783266  0.68813643    -0.13420
C12         C  0.02121756  0.08780162  0.67668760     0.00230
C13         C  0.02147858  0.06805775  0.65313904    -0.11950
C14         C  0.05650855  0.08161243  0.63813434     0.02720
C15         C  0.09333203  0.11370314  0.64879558    -0.11370
H16         H  0.05513535  0.13267235  0.70647641     0.08320
H17         H  0.49312237  0.04357903  0.64552160     0.05850
H18         H  0.12061560  0.12543829  0.63681747     0.05690
C19         C  0.27994764  0.46752407  0.83946962     0.02730
C20         C  0.30139639  0.45235907  0.85376818    -0.13420
C21         C  0.30575699  0.42144818  0.84279585     0.00230
C22         C  0.28777040  0.40387819  0.81808423    -0.11950
C23         C  0.26624311  0.41758123  0.80306495     0.02720
C24         C  0.26192235  0.44956676  0.81383179    -0.11370
H25         H  0.31754979  0.46636281  0.87256481     0.08320
H26         H  0.29207952  0.38002677  0.81009237     0.05850
H27         H  0.24637810  0.46138473  0.80190784     0.05690
C28         C  0.44538019  0.33297748  0.88198572     0.02730
C29         C  0.42741888  0.34996910  0.86568536    -0.13420
C30         C  0.42244501  0.38104726  0.87571352     0.00230
C31         C  0.43706504  0.39744897  0.90136720    -0.11950
C32         C  0.45535624  0.38212103  0.91814498     0.02720
C33         C  0.45993314  0.34979167  0.90841390    -0.11370
H34         H  0.41368302  0.33685011  0.84609022     0.08320
H35         H  0.43233446  0.42133450  0.90872853     0.05850
H36         H  0.47275194  0.33664493  0.92178537     0.05690
C37         C  0.44893528  0.30339991  0.50441413     0.02730
C38         C  0.47150236  0.28908922  0.51823713    -0.13420
C39         C  0.47721071  0.25933653  0.50667696     0.00230
C40         C  0.45971304  0.24228050  0.48174777    -0.11950
C41         C  0.43617662  0.25436707  0.46753938     0.02720
C42         C  0.43064426  0.28533158  0.47885722    -0.11370
H43         H  0.98723188  0.30277809  0.53721832     0.08320
H44         H  0.46518448  0.21942872  0.47327975     0.05850
H45         H  0.41376174  0.29618734  0.46748654     0.05690
C46         C  0.11348280  0.16825209  0.54871765     0.02730
C47         C  0.09674474  0.18624694  0.53223613    -0.13420
C48         C  0.09181068  0.21733135  0.54239228     0.00230
C49         C  0.10523330  0.23262544  0.56845624    -0.11950
C50         C  0.12286699  0.21672879  0.58531254     0.02720
C51         C  0.12731762  0.18435914  0.57544241    -0.11370
H52         H  0.08393862  0.17393466  0.51228979     0.08320
H53         H  0.10046276  0.25642177  0.57595095     0.05850
H54         H  0.13953763  0.17070924  0.58888153     0.05690
C55         C  0.42650381  0.29554591  0.00895730     0.02730
C56         C  0.39077798  0.27902245  0.02437894    -0.13420
C57         C  0.35505427  0.24709161  0.01422495     0.00230
C58         C  0.35430467  0.22936794  0.98938034    -0.11950
C59         C  0.38832549  0.24500476  0.97302721     0.02720
C60         C  0.42504678  0.27802001  0.98295170    -0.11370
H61         H  0.38927123  0.29321005  0.04317645     0.08320
H62         H  0.32585694  0.20476203  0.98197856     0.05850
H63         H  0.45139770  0.29122179  0.96996220     0.05690
C64         C  0.12614538  0.16237053  0.05064809     0.02730
C65         C  0.12610137  0.18121601  0.07584729    -0.13420
C66         C  0.16259500  0.21404953  0.08634313     0.00230
C67         C  0.19782415  0.22777536  0.07136282    -0.11950
C68         C  0.19822964  0.20888320  0.04738257     0.02720
C69         C  0.16293729  0.17718275  0.03674913    -0.11370
H70         H  0.09870314  0.16940887  0.08769689     0.08320
H71         H  0.22611481  0.25230503  0.07902424     0.05850
H72         H  0.16533023  0.16219592  0.01864720     0.05690
C73         C  0.45992848  0.33291889  0.38302411     0.02730
C74         C  0.45996613  0.35033680  0.40886777    -0.13420
C75         C  0.49616408  0.38343812  0.41936786     0.00230
C76         C  0.03109110  0.39877097  0.40392342    -0.11950
C77         C  0.03146318  0.38118202  0.37935634     0.02720
C78         C  0.49619000  0.34991495  0.36826286    -0.11370
H79         H  0.43297694  0.33714314  0.42122516     0.08320
H80         H  0.05927129  0.42324160  0.41178642     0.05850
H81         H  0.49850348  0.33638055  0.34938409     0.05690
C82         C  0.26002985  0.46579331  0.34044776     0.02730
C83         C  0.22387870  0.45077144  0.35520893    -0.13420
C84         C  0.18772039  0.42076145  0.34417472     0.00230
C85         C  0.18674720  0.40249487  0.31958762    -0.11950
C86         C  0.22146558  0.41560929  0.30426291     0.02720
C87         C  0.25865338  0.44761427  0.31467080    -0.11370
H88         H  0.22258604  0.46489656  0.37409660     0.08320
H89         H  0.15792127  0.37902090  0.31179810     0.05850
H90         H  0.28559528  0.45936931  0.30232853     0.05690
C91         C  0.11329865  0.13458026  0.17138201     0.02730
C92         C  0.13468066  0.11942601  0.18574064    -0.13420
C93         C  0.13951199  0.08887524  0.17467486     0.00230
C94         C  0.12197562  0.07155744  0.14983241    -0.11950
C95         C  0.09979056  0.08461512  0.13500991     0.02720
C96         C  0.09521451  0.11647841  0.14576873    -0.11370
H97         H  0.15047579  0.13319784  0.20468572     0.08320
H98         H  0.12678067  0.04807778  0.14173489     0.05850
H99         H  0.07933155  0.12799350  0.13391680     0.05690
C100        C  0.27844405  0.50061156  0.21526850     0.02730
C101        C  0.29289015  0.01741386  0.24177605    -0.13420
C102        C  0.28853944  0.04998453  0.25142366     0.00230
C103        C  0.27032614  0.06527044  0.23458538    -0.11950
C104        C  0.25611826  0.04912911  0.20881747     0.02720
C105        C  0.26099887  0.01795971  0.19884738    -0.11370
H106        H  0.30560682  0.00422605  0.25519595     0.08320
H107        H  0.26558165  0.08915349  0.24192201     0.05850
H108        H  0.24764218  0.50511375  0.17911685     0.05690
C109        C  0.04125947  0.24946909  0.83918162     0.02730
C110        C  0.05663675  0.28621760  0.85321333    -0.13420
C111        C  0.08727869  0.32135347  0.84195969     0.00230
C112        C  0.10553688  0.32076831  0.81782447    -0.11950
C113        C  0.09167012  0.28549532  0.80296910     0.02720
C114        C  0.05927996  0.24920784  0.81368482    -0.11370
H115        H  0.04256730  0.28870022  0.87175554     0.08320
H116        H  0.12959778  0.34892830  0.80993098     0.05850
H117        H  0.04722260  0.22177955  0.80184039     0.05690
C118        C  0.17366927  0.04845282  0.88254834     0.02730
C119        C  0.15756411  0.01280492  0.86707468    -0.13420
C120        C  0.12724950  0.47679768  0.87768948     0.00230
C121        C  0.10972368  0.47552600  0.90261351    -0.11950
C122        C  0.12406593  0.00968666  0.91869522     0.02720
C123        C  0.15631833  0.04670359  0.90867861    -0.11370
H124        H  0.17114992  0.01167506  0.84791200     0.08320
H125        H  0.08603812  0.44684540  0.91010494     0.05850
H126        H  0.16890086  0.07318817  0.92156495     0.05690
C127        C  0.37789026  0.40023535  0.67368035     0.02730
C128        C  0.39288288  0.37854690  0.68778745    -0.13420
C129        C  0.42426826  0.37446089  0.67707838     0.00230
C130        C  0.44300482  0.39371055  0.65309190    -0.11950
C131        C  0.42843676  0.41391973  0.63768343     0.02720
C132        C  0.39587903  0.41784627  0.64810419    -0.11370
H133        H  0.37797301  0.36157547  0.70597911     0.08320
H134        H  0.46798792  0.39070681  0.64565475     0.05850
H135        H  0.38359061  0.43269091  0.63592304     0.05690
C136        C  0.01083323  0.23440756  0.71850423     0.02730
C137        C  0.99465222  0.25508974  0.70449912    -0.13420
C138        C  0.46219757  0.25732180  0.71512776     0.00230
C139        C  0.44377463  0.23734900  0.73895179    -0.11950
C140        C  0.45953986  0.21814668  0.75431051     0.02720
C141        C  0.49300708  0.21586734  0.74392274    -0.11370
H142        H  0.00920762  0.27253626  0.68639166     0.08320
H143        H  0.41799993  0.23901951  0.74633374     0.05850
H144        H  0.00598688  0.20156025  0.75597084     0.05690
C145        C  0.20980487  0.08428897  0.50549581     0.02730
C146        C  0.22625556  0.12061249  0.52017683    -0.13420
C147        C  0.25736852  0.15577743  0.50923563     0.00230
C148        C  0.27504390  0.15548969  0.48473086    -0.11950
C149        C  0.26009454  0.12061417  0.46926250     0.02720
C150        C  0.22728590  0.08439676  0.47969495    -0.11370
H151        H  0.21259865  0.12288401  0.53899069     0.08320
H152        H  0.29937629  0.18361681  0.47700614     0.05850
H153        H  0.21446687  0.05734201  0.46739006     0.05690
C154        C  0.34243742  0.38316957  0.54949428     0.02730
C155        C  0.32472342  0.38187337  0.57543444    -0.13420
C156        C  0.29317426  0.34476805  0.58595543     0.00230
C157        C  0.28011853  0.31009540  0.57060818    -0.11950
C158        C  0.29797929  0.31103185  0.54590994     0.02720
C159        C  0.32753070  0.34698914  0.53479507    -0.11370
H160        H  0.33643808  0.40884414  0.58776030     0.08320
H161        H  0.25692364  0.28137575  0.57839127     0.05850
H162        H  0.34132988  0.34562235  0.51579394     0.05690
C163        C  0.21063493  0.06736458  0.00797135     0.02730
C164        C  0.22729228  0.04811310  0.02317977    -0.13420
C165        C  0.25832953  0.04364193  0.01243644     0.00230
C166        C  0.27650459  0.06157111  0.98807417    -0.11950
C167        C  0.26089223  0.08009593  0.97196503     0.02720
C168        C  0.22784344  0.08353679  0.98194340    -0.11370
H169        H  0.21355314  0.03259776  0.04206988     0.08320
H170        H  0.30133999  0.05819374  0.98078146     0.05850
H171        H  0.21454427  0.09674920  0.96908441     0.05690
C172        C  0.34473582  0.40215829  0.05170103     0.02730
C173        C  0.33190154  0.42648349  0.03886836    -0.13420
C174        C  0.30353838  0.43356001  0.05120103     0.00230
C175        C  0.28440172  0.41395906  0.07488097    -0.11950
C176        C  0.29554254  0.38932023  0.08837455     0.02720
C177        C  0.32619306  0.38330063  0.07685536    -0.11370
H178        H  0.34640636  0.44317092  0.02048128     0.08320
H179        H  0.26127699  0.41927639  0.08315929     0.05850
H180        H  0.33644135  0.36559808  0.08776186     0.05690
C181        C  0.17777285  0.06847252  0.38381622     0.02730
C182        C  0.16101222  0.08808260  0.36923919    -0.13420
C183        C  0.12994566  0.09207524  0.38037563     0.00230
C184        C  0.11252997  0.07417102  0.40490680    -0.11950
C185        C  0.12766739  0.05426451  0.42017851     0.02720
C186        C  0.16049362  0.05099581  0.40959206    -0.11370
H187        H  0.17442536  0.10391515  0.35037860     0.08320
H188        H  0.08816922  0.07789040  0.41276231     0.05850
H189        H  0.17349524  0.03683269  0.42176917     0.05690
C190        C  0.04448607  0.23396806  0.34001747     0.02730
C191        C  0.05943572  0.21283095  0.35479750    -0.13420
C192        C  0.08867316  0.20599140  0.34356966     0.00230
C193        C  0.10620388  0.22242731  0.31873163    -0.11950
C194        C  0.09320109  0.24415799  0.30350242     0.02720
C195        C  0.06197391  0.25009113  0.31409273    -0.11370
H196        H  0.04584132  0.19803698  0.37391551     0.08320
H197        H  0.12918043  0.21659671  0.31082465     0.05850
H198        H  0.05025898  0.26536072  0.30180072     0.05690
C199        C  0.00704355  0.21582995  0.21440427     0.02730
C200        C  0.49025434  0.18029989  0.19874394    -0.13420
C201        C  0.45973099  0.14424693  0.20928995     0.00230
C202        C  0.44342904  0.14307288  0.23479517    -0.11950
C203        C  0.45803556  0.17737342  0.25084735     0.02720
C204        C  0.49011544  0.21423904  0.24064024    -0.11370
H205        H  0.00326781  0.17934755  0.17928387     0.08320
H206        H  0.42006747  0.11447263  0.24259876     0.05850
H207        H  0.50301205  0.24074485  0.25351849     0.05690
C208        C  0.37546604  0.41655556  0.17294613     0.02730
C209        C  0.39200511  0.45299047  0.18754222    -0.13420
C210        C  0.42296638  0.48825623  0.17648043     0.00230
C211        C  0.43968262  0.48771073  0.15153256    -0.11950
C212        C  0.42519014  0.45244357  0.13649393     0.02720
C213        C  0.39283021  0.41633337  0.14722656    -0.11370
H214        H  0.37866325  0.45516587  0.20653366     0.08320
H215        H  0.46337523  0.01579959  0.14331374     0.05850
H216        H  0.38013410  0.38907248  0.13513898     0.05690
C217        C  0.27523619  0.24977666  0.34076184     0.02730
C218        C  0.29475180  0.28535953  0.35637967    -0.13420
C219        C  0.29982157  0.32125165  0.34605191     0.00230
C220        C  0.28393299  0.32236256  0.32076001    -0.11950
C221        C  0.26402846  0.28814602  0.30460626     0.02720
C222        C  0.25934767  0.25133740  0.31464273    -0.11370
H223        H  0.30938212  0.28643534  0.37566906     0.08320
H224        H  0.28879240  0.35089357  0.31319738     0.05850
H225        H  0.24534365  0.22485844  0.30173837     0.05690
C226        C  0.44120122  0.04926627  0.38361881     0.02730
C227        C  0.42139391  0.01312522  0.36867133    -0.13420
C228        C  0.41742860  0.47790794  0.37933832     0.00230
C229        C  0.43469258  0.47804232  0.40430685    -0.11950
C230        C  0.45493441  0.01288159  0.41989144     0.02720
C231        C  0.45858954  0.04908508  0.40948471    -0.11370
H232        H  0.40584112  0.01109773  0.34961681     0.08320
H233        H  0.43066340  0.44992740  0.41209818     0.05850
H234        H  0.47300078  0.07607377  0.42186951     0.05690
C235        C  0.27446666  0.21545108  0.71818163     0.02730
C236        C  0.25340864  0.17888381  0.70383004    -0.13420
C237        C  0.24873217  0.14379364  0.71514044     0.00230
C238        C  0.26766354  0.14437124  0.73933165    -0.11950
C239        C  0.28839559  0.17933381  0.75454630     0.02720
C240        C  0.29228553  0.21555674  0.74395069    -0.11370
H241        H  0.23709120  0.17647684  0.68507049     0.08320
H242        H  0.26404142  0.11632967  0.74697461     0.05850
H243        H  0.30728845  0.24278159  0.75606643     0.05690
C244        C  0.10968738  0.41559152  0.67354602     0.02730
C245        C  0.13220112  0.45197950  0.68791912    -0.13420
C246        C  0.13921771  0.48789757  0.67649515     0.00230
C247        C  0.12109932  0.48855732  0.65217690    -0.11950
C248        C  0.09861138  0.45382296  0.63705881     0.02720
C249        C  0.09269260  0.41672498  0.64768931    -0.11370
H250        H  0.14789476  0.45343585  0.70679155     0.08320
H251        H  0.12643651  0.01720566  0.64449116     0.05850
H252        H  0.07663358  0.38961618  0.63554614     0.05690
C253        C  0.42655489  0.06474361  0.50509268     0.02730
C254        C  0.38940714  0.04261059  0.51853762    -0.13420
C255        C  0.35423993  0.03826268  0.50702336     0.00230
C256        C  0.35550598  0.05900023  0.48369251    -0.11950
C257        C  0.39100326  0.08032536  0.46905884     0.02720
C258        C  0.42720033  0.08370511  0.47984191    -0.11370
H259        H  0.38669034  0.02532051  0.53671551     0.08320
H260        H  0.32754089  0.05606219  0.47603357     0.05850
H261        H  0.45482230  0.09920646  0.46822375     0.05690
C262        C  0.12636867  0.39861999  0.54936805     0.02730
C263        C  0.16314012  0.42045737  0.53537818    -0.13420
C264        C  0.19878494  0.42544366  0.54660997     0.00230
C265        C  0.19834370  0.40547642  0.57018033    -0.11950
C266        C  0.16342071  0.38478094  0.58540234     0.02720
C267        C  0.12678068  0.38084921  0.57492634    -0.11370
H268        H  0.16521979  0.43717104  0.51702317     0.08320
H269        H  0.22656101  0.40880916  0.57764394     0.05850
H270        H  0.09958842  0.36586370  0.58703262     0.05690
C271        C  0.29267781  0.23114781  0.21467591     0.02730
C272        C  0.32850067  0.25125366  0.19945709    -0.13420
C273        C  0.36472576  0.25693783  0.21006072     0.00230
C274        C  0.36600638  0.24082605  0.23512433    -0.11950
C275        C  0.33153429  0.22029422  0.25091154     0.02720
C276        C  0.29435178  0.21517692  0.24064954    -0.11370
H277        H  0.32950555  0.26600046  0.18034166     0.08320
H278        H  0.39484375  0.24610252  0.24284316     0.05850
H279        H  0.26766182  0.20078053  0.25328458     0.05690
C280        C  0.09248656  0.39840268  0.17355939     0.02730
C281        C  0.05666420  0.37997820  0.18883819    -0.13420
C282        C  0.02125634  0.37640883  0.17832217     0.00230
C283        C  0.02109672  0.39324946  0.15334174    -0.11950
C284        C  0.05568540  0.41202928  0.13743749     0.02720
C285        C  0.09195295  0.41506345  0.14762172    -0.11370
H286        H  0.05480325  0.36472700  0.20788624     0.08320
H287        H  0.99284240  0.38953801  0.14562475     0.05850
H288        H  0.11862218  0.42824531  0.13494276     0.05690
C289        C  0.44215176  0.08045926  0.00723580     0.02730
C290        C  0.46505998  0.11665731  0.02175038    -0.13420
C291        C  0.47422085  0.15299563  0.00993910     0.00230
C292        C  0.45783419  0.15443900  0.98503553    -0.11950
C293        C  0.43323061  0.11960852  0.97044432     0.02720
C294        C  0.42564483  0.08208802  0.98134394    -0.11370
H295        H  0.47961182  0.11755380  0.04104032     0.08320
H296        H  0.46509146  0.18348159  0.97693200     0.05850
H297        H  0.40857087  0.05492325  0.96940123     0.05690
C298        C  0.10811485  0.38103611  0.04986462     0.02730
C299        C  0.08851201  0.34481592  0.03495682    -0.13420
C300        C  0.08517706  0.30995495  0.04575391     0.00230
C301        C  0.10345714  0.31051916  0.07029200    -0.11950
C302        C  0.12261164  0.34519531  0.08604015     0.02720
C303        C  0.12554416  0.38109521  0.07574356    -0.11370
H304        H  0.07228392  0.34234493  0.01614266     0.08320
H305        H  0.10025887  0.28262870  0.07789580     0.05850
H306        H  0.13930203  0.40796484  0.08826449     0.05690
C307        C  0.25870077  0.23018942  0.83977992     0.02730
C308        C  0.22167666  0.20956159  0.85366252    -0.13420
C309        C  0.18706853  0.20787959  0.84305397     0.00230
C310        C  0.18905943  0.22852554  0.81943611    -0.11950
C311        C  0.22406330  0.24725774  0.80404842     0.02720
C312        C  0.25965712  0.24902670  0.81444442    -0.11370
H313        H  0.21854244  0.19163312  0.87155439     0.08320
H314        H  0.16175410  0.22732975  0.81202351     0.05850
H315        H  0.28694553  0.26302325  0.80239464     0.05690
C316        C  0.45843042  0.06313210  0.88264418     0.02730
C317        C  0.49512238  0.08474791  0.86845462    -0.13420
C318        C  0.03066990  0.08826615  0.87889925     0.00230
C319        C  0.03002170  0.06826302  0.90256612    -0.11950
C320        C  0.49539010  0.04856922  0.91817745     0.02720
C321        C  0.45889335  0.04517474  0.90803867    -0.11370
H322        H  0.49722708  0.10224153  0.85053807     0.08320
H323        H  0.05797675  0.07076713  0.90983920     0.05850
H324        H  0.43189999  0.03063676  0.92037453     0.05690
O325        O  0.36681020  0.08637576  0.79244350    -0.80530
O326        O  0.23526320  0.11081497  0.89108684    -0.82080
O327        O  0.27699711  0.02776050  0.83248114    -0.79100
O328        O  0.28798330  0.14035599  0.79276363    -0.77490
O329        O  0.33648045  0.20668019  0.79020702    -0.79280
O330        O  0.30273398  0.01964500  0.87274534    -0.80210
O331        O  0.22744036  0.07795030  0.85048510    -0.81540
O332        O  0.30008357  0.06797659  0.78955908    -0.81830
Eu333      Eu  0.29455287  0.09913446  0.83064366     2.39200
O334        O  0.30982251  0.16211817  0.84652538    -0.89340
O335        O  0.34497929  0.08578716  0.84665298    -0.92940
C336        C  0.33145698  0.06813371  0.78052679     1.01750
C337        C  0.21382793  0.08248478  0.87372899     1.01570
C338        C  0.28516976  0.00674248  0.84915943     1.01510
C339        C  0.30491117  0.17560862  0.78113678     0.99370
H340        H  0.27210239  0.07480521  0.88609914     0.29120
O341        O  0.29602189  0.09750318  0.87895267    -1.01720
H342        H  0.35863712  0.14818780  0.79548675     0.29150
O343        O  0.35874775  0.14812255  0.81527516    -1.04260
O344        O  0.34801372  0.20686290  0.93443132    -0.81490
O345        O  0.48035861  0.18611747  0.83244937    -0.81030
O346        O  0.29990809  0.07901964  0.93391530    -0.79470
O347        O  0.32132943  0.23134480  0.83289622    -0.82810
O348        O  0.42132396  0.21854156  0.79273782    -0.80660
O349        O  0.39619570  0.06234334  0.89105189    -0.79310
O350        O  0.43192552  0.15967564  0.93313583    -0.80830
O351        O  0.44580347  0.27170175  0.89103631    -0.82750
O352        O  0.38507253  0.09273189  0.93494962    -0.79490
O353        O  0.42037875  0.27881171  0.85032725    -0.82170
O354        O  0.27791989  0.12437430  0.93501733    -0.77900
O355        O  0.42884835  0.08726324  0.85046825    -0.77940
O356        O  0.43981139  0.17065257  0.78999158    -0.77580
O357        O  0.28636088  0.20466638  0.87245026    -0.81080
O358        O  0.41557740  0.22818527  0.93576701    -0.80500
O359        O  0.48854418  0.22123561  0.87204354    -0.78830
Eu360      Eu  0.30859795  0.16127671  0.89454358     2.39770
Eu361      Eu  0.40814405  0.13340965  0.83071269     2.39570
Eu362      Eu  0.34623911  0.08543367  0.89469911     2.38400
Eu363      Eu  0.37394925  0.21197870  0.83087568     2.39880
Eu364      Eu  0.42301786  0.19888736  0.89465364     2.39790
O365        O  0.42223395  0.19718783  0.84665035    -0.93250
O366        O  0.35942852  0.14871534  0.90958317    -0.92140
C367        C  0.38382149  0.22605697  0.94580395     1.01920
C368        C  0.50159735  0.21578007  0.84885501     1.00640
C369        C  0.28015478  0.09497044  0.94502546     1.00030
C370        C  0.29186840  0.22321038  0.84931423     1.02050
C371        C  0.43978755  0.20180100  0.78097200     1.00960
C372        C  0.42439630  0.06922214  0.87371810     0.99810
C373        C  0.41599846  0.12413264  0.94432109     0.99870
C374        C  0.43877761  0.29271384  0.87353163     1.02480
H375        H  0.43294526  0.13530482  0.88597499     0.29860
O376        O  0.41012653  0.13659315  0.87896267    -1.05410
H377        H  0.37262104  0.23499588  0.88640227     0.31910
O378        O  0.37123809  0.21107975  0.87917686    -1.07970
O379        O  0.45361080  0.42069270  0.95635825    -0.80530
O380        O  0.10915917  0.44319342  0.05744367    -0.82080
O381        O  0.08452470  0.46942080  0.95663904    -0.79100
O382        O  0.48818979  0.35720908  0.00005272    -0.77490
O383        O  0.45542993  0.35008715  0.04053682    -0.79280
O384        O  0.10596176  0.03659563  0.95546289    -0.80210
O385        O  0.08233536  0.40864926  0.01752575    -0.81540
O386        O  0.49986958  0.39966399  0.95538771    -0.81830
Eu387      Eu  0.03798638  0.43013868  0.99598334     2.39200
O388        O  0.03930474  0.43174418  0.04408289    -0.89340
O389        O  0.02473678  0.48007249  0.98092371    -0.92940
C390        C  0.46999247  0.40139664  0.94526950     1.01750
C391        C  0.10105880  0.41405706  0.04070405     1.01570
C392        C  0.10418629  0.50506882  0.94552588     1.01510
C393        C  0.46009457  0.33610956  0.01748669     0.99370
H394        H  0.11207630  0.49390260  0.00433722     0.29120
O395        O  0.08806817  0.49248646  0.01155169    -1.01720
H396        H  0.45138554  0.39352782  0.00459439     0.29150
O397        O  0.47410510  0.41758620  0.01175924    -1.04260
O398        O  0.09847053  0.04451523  0.09720479    -0.81490
O399        O  0.43868474  0.01717980  0.99915973    -0.81030
O400        O  0.14863344  0.06717031  0.99949557    -0.79470
O401        O  0.51623375  0.41012527  0.09881398    -0.82810
O402        O  0.40441806  0.39792572  0.05818060    -0.80660
O403        O  0.03529708  0.04952038  0.95650043    -0.79310
O404        O  0.06281883  0.10177771  0.05772559    -0.80830
O405        O  0.46350409  0.99061785  0.09806237    -0.82750
O406        O  0.09730873  0.10911367  0.01805736    -0.79490
O407        O  0.44497375  0.42429753  0.10085037    -0.82170
O408        O  0.15656460  0.04160853  0.03978729    -0.77900
O409        O  0.46777059  0.00349010  0.95491603    -0.77940
O410        O  0.39568943  0.42305841  0.01792864    -0.77580
O411        O  0.08305089  0.45825376  0.10099092    -0.81080
O412        O  0.05014193  0.06260654  0.10006069    -0.80500
O413        O  0.46354424  0.04948380  0.04006859    -0.78830
Eu414      Eu  0.08974692  0.49556050  0.05983093     2.39770
Eu415      Eu  0.46126150  0.46695654  0.99588624     2.39570
Eu416      Eu  0.07529665  0.04346993  0.99593075     2.38400
Eu417      Eu  0.47629629  0.41701987  0.06016232     2.39880
Eu418      Eu  0.01068941  0.02983846  0.05978661     2.39790
O419        O  0.46243867  0.46670971  0.04396772    -0.93250
O420        O  0.07443208  0.04325681  0.04390731    -0.92140
C421        C  0.08205388  0.06334474  0.10881175     1.01920
C422        C  0.44595563  0.04543960  0.01654812     1.00640
C423        C  0.17015468  0.06028820  0.01674604     1.00030
C424        C  0.05177131  0.42733582  0.11042736     1.02050
C425        C  0.38317526  0.40595639  0.04155005     1.00960
C426        C  0.99954306  0.03320602  0.94508041     0.99810
C427        C  0.09223483  0.12257949  0.04120249     0.99870
C428        C  0.44502666  0.45558438  0.10984591     1.02480
H429        H  0.01179345  0.05361532  0.00422487     0.29860
O430        O  0.01294482  0.03099129  0.01146153    -1.05410
H431        H  0.02613740  0.48150826  0.09524362     0.31910
O432        O  0.02583392  0.48110105  0.07545298    -1.07970
O433        O  0.43410261  0.21405961  0.42968224    -0.80530
O434        O  0.27397374  0.18757803  0.33206179    -0.82080
O435        O  0.39744217  0.27159247  0.39023371    -0.79100
O436        O  0.29852018  0.15956896  0.43093775    -0.77490
O437        O  0.27985376  0.09314906  0.43329796    -0.79280
O438        O  0.43287789  0.27871168  0.35104297    -0.80210
O439        O  0.29976368  0.22036990  0.37270964    -0.81540
O440        O  0.38589306  0.23221481  0.43288395    -0.81830
Eu441      Eu  0.34592761  0.19956317  0.39263321     2.39200
O442        O  0.29746091  0.13664047  0.37655048    -0.89340
O443        O  0.40966188  0.21298700  0.37651969    -0.92940
C444        C  0.41790390  0.23294402  0.44144549     1.01750
C445        C  0.28134531  0.21586506  0.34947163     1.01570
C446        C  0.42699181  0.29244666  0.37381464     1.01510
C447        C  0.27995992  0.12431381  0.44253172     0.99370
H448        H  0.34721093  0.22341909  0.33705691     0.29120
O449        O  0.34838636  0.20078416  0.34424326    -1.01720
H450        H  0.36121347  0.15095064  0.42788106     0.29150
O451        O  0.36085870  0.15063814  0.40808899    -1.04260
O452        O  0.28772881  0.08979378  0.28928179    -0.81490
O453        O  0.44370943  0.11233621  0.39063785    -0.81030
O454        O  0.37180855  0.22107370  0.28908217    -0.79470
O455        O  0.23904854  0.06690337  0.39069572    -0.82810
O456        O  0.35216760  0.08011230  0.43062087    -0.80660
O457        O  0.48375727  0.23615515  0.33183151    -0.79310
O458        O  0.41899416  0.13765538  0.28907507    -0.80830
O459        O  0.32257958  0.02673425  0.33203385    -0.82750
O460        O  0.44046826  0.20483260  0.28773981    -0.79490
O461        O  0.29000812  0.01969989  0.37256950    -0.82170
O462        O  0.30427274  0.17501121  0.28763368    -0.77540
O463        O  0.49140818  0.21081387  0.37230781    -0.77940
O464        O  0.41887363  0.12822941  0.43348695    -0.77580
O465        O  0.23106080  0.09435946  0.35134117    -0.81080
O466        O  0.33369860  0.06836058  0.28835969    -0.80500
O467        O  0.41580938  0.07717341  0.35111144    -0.78830
Eu468      Eu  0.29639366  0.13722919  0.32843561     2.39770
Eu469      Eu  0.42470347  0.16503784  0.39233032     2.39570
Eu470      Eu  0.41067273  0.21319316  0.32844418     2.38400
Eu471      Eu  0.31118235  0.08669753  0.39251764     2.39880
Eu472      Eu  0.37262354  0.09954212  0.32856853     2.39790
O473        O  0.37409676  0.10125342  0.37659271    -0.93250
O474        O  0.35975891  0.14985803  0.31354941    -0.92140
C475        C  0.30369425  0.06995640  0.27834556     1.01920
C476        C  0.43478903  0.08267354  0.37421667     1.00640
C477        C  0.33600119  0.20488485  0.27779009     1.00030
C478        C  0.21786659  0.07542129  0.37434605     1.02050
C479        C  0.38755382  0.09698777  0.44248292     1.00960
C480        C  0.50494652  0.22884385  0.34908084     0.99810
C481        C  0.43853980  0.17316359  0.27783066     0.99870
C482        C  0.29433395  0.00576251  0.34937118     1.02480
H483        H  0.44685768  0.16293026  0.33677238     0.29860
O484        O  0.42302035  0.16184735  0.34401785    -1.05410
H485        H  0.28608241  0.06358421  0.33712404     0.31910
O486        O  0.30892756  0.08759889  0.34421091    -1.07970
O487        O  0.23035831  0.43651290  0.72463177    -0.80530
O488        O  0.25316656  0.30483677  0.62383041    -0.82080
O489        O  0.31665768  0.40183309  0.66594816    -0.79100
O490        O  0.20323830  0.38511894  0.62362657    -0.77490
O491        O  0.13572002  0.33910505  0.62192251    -0.79280
O492        O  0.32486910  0.37669341  0.70635208    -0.80210
O493        O  0.27413455  0.37187198  0.62227624    -0.81540
O494        O  0.26541612  0.44421450  0.68514862    -0.81830
Eu495      Eu  0.24337437  0.37871054  0.66284066     2.39200
O496        O  0.19270433  0.31533628  0.64784477    -0.89340
O497        O  0.24236200  0.37855957  0.71091524    -0.92940
C498        C  0.25986035  0.45749624  0.70820937     1.01750
C499        C  0.27276220  0.34038646  0.61258177     1.01570
C500        C  0.33817184  0.39469901  0.68304226     1.01510
C501        C  0.16749132  0.36898044  0.61219744     0.99370
H502        H  0.28001969  0.32886944  0.67129856     0.29120
O503        O  0.25617240  0.32777302  0.67851658    -1.01720
H504        H  0.17986794  0.38858866  0.67128357     0.29150
O505        O  0.18095573  0.36592482  0.67849180    -1.04260
O506        O  0.15658060  0.19271146  0.66638525    -0.81490
O507        O  0.13057023  0.32418909  0.76476845    -0.81030
O508        O  0.27704780  0.27845643  0.72507271    -0.79470
O509        O  0.12109428  0.25530889  0.62353316    -0.82810
O510        O  0.10669436  0.35247012  0.66575912    -0.80660
O511        O  0.26611710  0.37895639  0.76472141    -0.79310
O512        O  0.18523763  0.24601114  0.76532058    -0.80830
O513        O  0.07206909  0.23249531  0.72514111    -0.82750
O514        O  0.25203732  0.29408192  0.76790902    -0.79490
O515        O  0.06368183  0.25941733  0.68566381    -0.82170
O516        O  0.24991083  0.24363876  0.68529823    -0.77900
O517        O  0.21737245  0.39651559  0.76756813    -0.77940
O518        O  0.13199907  0.38525920  0.70647449    -0.77580
O519        O  0.16764079  0.23461844  0.62247580    -0.81080
O520        O  0.12378607  0.18518783  0.70691625    -0.80500
O521        O  0.11246129  0.25796796  0.76756187    -0.78830
Eu522      Eu  0.20620147  0.26552300  0.66292488     2.39770
Eu523      Eu  0.17833954  0.36467925  0.72681255     2.39570
Eu524      Eu  0.25798399  0.33103795  0.72678365     2.38400
Eu525      Eu  0.12910634  0.30214918  0.66279884     2.39880
Eu526      Eu  0.14429622  0.25197858  0.72687806     2.39790
O527        O  0.13016195  0.30160123  0.71087634    -0.93250
O528        O  0.20749601  0.26716681  0.71098930    -0.92140
C529        C  0.12824308  0.17158673  0.68361928     1.01920
C530        C  0.11210672  0.28903953  0.77650169     1.00640
C531        C  0.26849595  0.24899575  0.70856088     1.00030
C532        C  0.13751482  0.23601968  0.61246043     1.02050
C533        C  0.11413692  0.38094193  0.68298744     1.00960
C534        C  0.24919181  0.39716038  0.77649661     0.99810
C535        C  0.22067041  0.26309263  0.77712982     0.99870
C536        C  0.05073069  0.24089982  0.70882641     1.02480
H537        H  0.19392210  0.31635073  0.76202716     0.29860
O538        O  0.19376790  0.31608835  0.74223701    -1.05410
H539        H  0.11944876  0.22885842  0.67138032     0.31910
O540        O  0.14218725  0.25289094  0.67854201    -1.07970
O541        O  0.20176978  0.25364258  0.12461619    -0.80530
O542        O  0.06869786  0.27793181  0.22306150    -0.82080
O543        O  0.11000629  0.19464934  0.16450270    -0.79100
O544        O  0.12140014  0.30631463  0.12446688    -0.77490
O545        O  0.16940620  0.37288207  0.12247871    -0.79280
O546        O  0.13701563  0.18713491  0.20437523    -0.80210
O547        O  0.06120590  0.24482197  0.18258464    -0.81540
O548        O  0.13491190  0.23467540  0.12185143    -0.81830
Eu549      Eu  0.12839713  0.26616155  0.16271882     2.39200
O550        O  0.14289447  0.32891913  0.17893040    -0.89340
O551        O  0.17900493  0.25314218  0.17878939    -0.92940
C552        C  0.16630973  0.23478202  0.11283189     1.01750
C553        C  0.04740004  0.24957832  0.20568364     1.01570
C554        C  0.11868226  0.17387944  0.18104084     1.01510
C555        C  0.13835758  0.34161314  0.11298528     0.99370
H556        H  0.10592015  0.24189890  0.21810150     0.29120
O557        O  0.12991082  0.26461445  0.21105014    -1.01720
H558        H  0.19262601  0.31589810  0.12783863     0.29150
O559        O  0.19248266  0.31575962  0.14762813    -1.04260
O560        O  0.18125696  0.37507049  0.26633408    -0.81490
O561        O  0.31425457  0.35376676  0.16568168    -0.81030
O562        O  0.13306174  0.24431680  0.26567096    -0.79470
O563        O  0.15474189  0.39912701  0.16586903    -0.82810
O564        O  0.25547200  0.38753083  0.12618717    -0.80660
O565        O  0.23027782  0.22986863  0.22327574    -0.79310
O566        O  0.26452754  0.32800919  0.26659941    -0.80830
O567        O  0.27900988  0.43927856  0.22396958    -0.82750
O568        O  0.21852436  0.26075874  0.26763968    -0.79490
O569        O  0.25291187  0.44629076  0.18352949    -0.82170
O570        O  0.11169865  0.29011047  0.26738059    -0.77900
O571        O  0.26284807  0.25526661  0.18275571    -0.77940
O572        O  0.27373009  0.33958792  0.12269973    -0.77580
O573        O  0.11996905  0.37175836  0.20536627    -0.81080
O574        O  0.24887591  0.39689475  0.26796478    -0.80500
O575        O  0.32205984  0.38881110  0.20527158    -0.78830
Eu576      Eu  0.14196469  0.32802601  0.22701745     2.39770
Eu577      Eu  0.24203602  0.30131655  0.16308521     2.39570
Eu578      Eu  0.18024308  0.25270565  0.22682657     2.38400
Eu579      Eu  0.20693563  0.37935044  0.16356194     2.39880
Eu580      Eu  0.25629615  0.36644041  0.22737011     2.39790
O581        O  0.25551404  0.36485312  0.17931142    -0.93250
O582        O  0.19287859  0.31569280  0.24212538    -0.92140
C583        C  0.21706912  0.39507020  0.27764160     1.01920
C584        C  0.33538647  0.38325271  0.18225496     1.00640
C585        C  0.11336220  0.26013466  0.27694941     1.00030
C586        C  0.12549589  0.39088639  0.18250037     1.02050
C587        C  0.27420791  0.37125517  0.11427388     1.00960
C588        C  0.25847923  0.23702037  0.20590037     0.99810
C589        C  0.24848355  0.29242420  0.27768196     0.99870
C590        C  0.27169211  0.46027780  0.20664658     1.02480
H591        H  0.26680901  0.30309472  0.21859634     0.29860
O592        O  0.24403902  0.30435314  0.21142935    -1.05410
H593        H  0.20553221  0.40200572  0.21896501     0.31910
O594        O  0.20434132  0.37816832  0.21176996    -1.07970
O595        O  0.01680858  0.04262129  0.59974802    -0.80530
O596        O  0.14849202  0.02135968  0.49840692    -0.82080
O597        O  0.09832503  0.99385233  0.59932383    -0.79100
O598        O  0.11368142  0.10672746  0.55721639    -0.77490
O599        O  0.08781395  0.11413001  0.51677044    -0.79280
O600        O  0.05171803  0.42681660  0.60086417    -0.80210
O601        O  0.15663380  0.05627067  0.53809731    -0.81540
O602        O  0.08426088  0.06369786  0.60161556    -0.81830
Eu603      Eu  0.09095280  0.03388537  0.56053328     2.39200
O604        O  0.09009998  0.03240558  0.51246008    -0.89340
O605        O  0.02734540  0.48373035  0.57539251    -0.92940
C606        C  0.05247783  0.06189238  0.61129892     1.01750
C607        C  0.16977481  0.05086112  0.51492930     1.01570
C608        C  0.08221564  0.45826487  0.61053380     1.01510
C609        C  0.10652295  0.12790648  0.53994389     0.99370
H610        H  0.10088823  0.47047246  0.55190882     0.29120
O611        O  0.07810002  0.47168920  0.54475209    -1.01720
H612        H  0.04048846  0.06994180  0.55217772     0.29150
O613        O  0.03921070  0.04609680  0.54491990    -1.04260
O614        O  0.03540393  0.42140468  0.45801443    -0.81490
O615        O  0.40339297  0.44621012  0.55737119    -0.81030
O616        O  0.06380891  0.39728552  0.55714687    -0.79470
O617        O  0.08945069  0.05472213  0.45857306    -0.82810
O618        O  0.48976571  0.06721586  0.49844241    -0.80660
O619        O  0.46765234  0.41374101  0.59949014    -0.79310
O620        O  0.44465653  0.36292916  0.49796288    -0.80830
O621        O  0.45452191  0.47404578  0.45823397    -0.82750
O622        O  0.47070487  0.35485124  0.53809146    -0.79490
O623        O  0.50304642  0.04037907  0.45580163    -0.82170
O624        O  0.09702723  0.42268160  0.51680176    -0.77900
O625        O  0.44627977  0.45952587  0.60117223    -0.77940
O626        O  0.45479299  0.04008330  0.53794939    -0.77580
O627        O  0.10782937  0.00673706  0.45585315    -0.81080
O628        O  0.96861705  0.40294997  0.45544048    -0.80500
O629        O  0.39543899  0.41309803  0.51683898    -0.78830
Eu630      Eu  0.07624069  0.46868895  0.49644877     2.39770
Eu631      Eu  0.47665821  0.49647421  0.56038732     2.39570
Eu632      Eu  0.01404546  0.42048783  0.56030715     2.38400
Eu633      Eu  0.04178770  0.04729037  0.49658651     2.39880
Eu634      Eu  0.46239263  0.43424631  0.49639044     2.39790
O635        O  0.47775065  0.49728627  0.51232618    -0.93250
O636        O  0.01296898  0.42104075  0.51227952    -0.92140
C637        C  0.99990948  0.40302749  0.44625810     1.01920
C638        C  0.38199713  0.41763086  0.54018753     1.00640
C639        C  0.09229214  0.40442515  0.54003702     1.00030
C640        C  0.10790070  0.03796835  0.44685136     1.02050
C641        C  0.46022216  0.05871917  0.51483115     1.00960
C642        C  0.44814020  0.42972022  0.61089305     0.99810
C643        C  0.45320367  0.34204241  0.51447774     0.99870
C644        C  0.47145858  0.00925626  0.44662351     1.02480
H645        H  0.44014076  0.40993039  0.55190367     0.29860
O646        O  0.46394803  0.43267393  0.54469376    -1.05410
H647        H  0.02655891  0.98340026  0.46132870     0.31910
O648        O  0.02668347  0.48336426  0.48111870    -1.07970
C649        C  0.07009679  0.11888204  0.86879151    -0.06520
C650        C  0.09696014  0.14718899  0.88791703    -0.17650
C651        C  0.13531144  0.17683987  0.88030447     0.10670
C652        C  0.14705224  0.17831353  0.85289756    -0.06450
C653        C  0.12004543  0.15030465  0.83370217    -0.17680
C654        C  0.08173750  0.12057239  0.84133371     0.10710
S655        S  0.16716517  0.21195035  0.90631407    -0.32650
S656        S  0.05003142  0.08532673  0.81535545    -0.32650
H657        H  0.03073470  0.05231483  0.83302384     0.28720
H658        H  0.18786180  0.24468579  0.88857300     0.28710
H659        H  0.08776879  0.14636434  0.90901032     0.19300
H660        H  0.12927565  0.15109162  0.81262330     0.19310
C661        C  0.00415031  0.19085315  0.02183004    -0.06520
C662        C  0.49020556  0.21143018  0.03774078    -0.17650
C663        C  0.01568949  0.25132764  0.04474486     0.10670
C664        C  0.05580975  0.27088524  0.03516082    -0.06450
C665        C  0.06980201  0.25026808  0.01926694    -0.17680
C666        C  0.04427162  0.21026135  0.01243854     0.10710
S667        S  0.99445576  0.27514012  0.06539963    -0.32650
S668        S  0.06389730  0.18626706  0.99060841    -0.32650
H669        H  0.04019454  0.14752951  0.00124501     0.28720
H670        H  0.03005569  0.30696189  0.07627084     0.28710
H671        H  0.45891852  0.19658550  0.04401496     0.19300
H672        H  0.10090951  0.26525834  0.01260072     0.19310
C673        C  0.40301815  0.28681096  0.19846459    -0.06520
C674        C  0.41453830  0.32718202  0.20258693    -0.17650
C675        C  0.45411923  0.35734848  0.19823396     0.10670
C676        C  0.48237995  0.34674255  0.18931623    -0.06450
C677        C  0.47076154  0.30637775  0.18507816    -0.17680
C678        C  0.43120964  0.27627914  0.18934379     0.10710
S679        S  0.46693994  0.40852475  0.20467764    -0.32650
S680        S  0.41831114  0.22513896  0.18275663    -0.32650
H681        H  0.37744390  0.21093183  0.17679651     0.28720
H682        H  0.50819680  0.42348369  0.20968939     0.28710
H683        H  0.39298540  0.33503483  0.21045123     0.19300
H684        H  0.49229066  0.29844831  0.17727372     0.19310
C685        C  0.31499945  0.00818223  0.51721214    -0.06520
C686        C  0.30419522  0.51309703  0.54355601    -0.17650
C687        C  0.26563369  0.48752048  0.55313857     0.10670
C688        C  0.23774641  0.45581304  0.53613519    -0.06450
C689        C  0.24852278  0.45095342  0.50974575    -0.17680
C690        C  0.28714377  0.97654066  0.50016280     0.10710
S691        S  0.25380862  0.49740479  0.58700249    -0.32650
S692        S  0.29927018  0.96656527  0.46638401    -0.32650
H693        H  0.34005869  0.97999297  0.47215068     0.28720
H694        H  0.21300112  0.48408412  0.58138508     0.28710
H695        H  0.32552851  0.53773714  0.55634952     0.19300
H696        H  0.22722494  0.42624440  0.49698943     0.19310
C697        C  0.21912242  0.10492920  0.70440938    -0.06520
C698        C  0.22868129  0.09104479  0.68085485    -0.17650
C699        C  0.20433480  0.05162647  0.67242419     0.10670
C700        C  0.16953532  0.02615095  0.68771438    -0.06450
C701        C  0.16017451  0.03995688  0.71140746    -0.17680
C702        C  0.18449323  0.07939326  0.71983275     0.10710
S703        S  0.21893597  0.03566408  0.64192832    -0.32650
S704        S  0.16979966  0.09543671  0.75030178    -0.32650
H705        H  0.18620286  0.13569952  0.74244847     0.28720
H706        H  0.20163203  0.49515468  0.64941184     0.28710
H707        H  0.25584573  0.11060898  0.66956462     0.19300
H708        H  0.13294402  0.02044836  0.72265124     0.19310
C709        C  0.32894368  0.35959754  0.35820964    -0.06520
C710        C  0.36978186  0.37142829  0.35540411    -0.17650
C711        C  0.39958210  0.41102861  0.35994729     0.10670
C712        C  0.38820183  0.43904623  0.36790703    -0.06450
C713        C  0.34738100  0.42717892  0.37083074    -0.17680
C714        C  0.31759004  0.38761303  0.36622885     0.10710
S715        S  0.45138970  0.42420436  0.35494212    -0.32650
S716        S  0.26577156  0.37457268  0.37090101    -0.32650
H717        H  0.25089724  0.33368734  0.37618336     0.28720
H718        H  0.46602616  0.46495701  0.34930938     0.28710
H719        H  0.37835043  0.35010419  0.34828999     0.19300
H720        H  0.33879946  0.44853394  0.37785583     0.19310
C721        C  0.45057108  0.10598606  0.19713437    -0.06520
C722        C  0.48125815  0.09632056  0.19776680    -0.17650
C723        C  0.47263051  0.05718873  0.19323213     0.10670
C724        C  0.43256373  0.02730289  0.18747147    -0.06450
C725        C  0.40195264  0.03707857  0.18656704    -0.17680
C726        C  0.41061690  0.07621536  0.19110855     0.10710
S727        S  0.01372212  0.04711025  0.19552006    -0.32650
S728        S  0.36970436  0.08649066  0.18884635    -0.32650
H729        H  0.39364412  0.12744421  0.18266390     0.28720
H730        H  0.48998203  0.00637023  0.20234379     0.28710
H731        H  0.01176986  0.11899540  0.20326364     0.19300
H732        H  0.37140832  0.01439753  0.18114883     0.19310
C733        C  0.12053257  0.12154952  0.36986325    -0.06520
C734        C  0.08254222  0.10792277  0.35811813    -0.17650
C735        C  0.07061565  0.13500259  0.35021851     0.10670
C736        C  0.09700997  0.17627270  0.35497725    -0.06450
C737        C  0.13481758  0.18983114  0.36695227    -0.17680
C738        C  0.14670891  0.16278055  0.37486173     0.10710
S739        S  0.02199569  0.11504993  0.33373515    -0.32650
S740        S  0.19511405  0.18269583  0.39162250    -0.32650
H741        H  0.18363807  0.15118813  0.41034319     0.28720
H742        H  0.03238317  0.14713347  0.31573556     0.28710
H743        H  0.06225598  0.07607801  0.35504358     0.19300
H744        H  0.15517064  0.22167703  0.36997745     0.19310
C745        C  0.26721738  0.01396766  0.02333946    -0.06520
C746        C  0.28894942  0.52243038  0.04781683    -0.17650
C747        C  0.30335006  0.49769550  0.05664593     0.10670
C748        C  0.29515079  0.46375927  0.04070340    -0.06450
C749        C  0.27350276  0.45539478  0.01622936    -0.17680
C750        C  0.25887500  0.47987167  0.00750819     0.10710
S751        S  0.33210521  0.51102321  0.08819163    -0.32650
S752        S  0.22968613  0.96594642  0.97611158    -0.32650
H753        H  0.20495655  0.98167544  0.98348820     0.28720
H754        H  0.35593192  0.49410397  0.08120547     0.28710
H755        H  0.29581078  0.04904675  0.05952912     0.19300
H756        H  0.26662706  0.42879724  0.00447762     0.19310
C757        C  0.28976625  0.27287452  0.53464991    -0.06520
C758        C  0.25230944  0.24877165  0.52217205    -0.17650
C759        C  0.24057314  0.20983175  0.51428014     0.10670
C760        C  0.26648179  0.19458805  0.51984077    -0.06450
C761        C  0.30408862  0.21877872  0.53215080    -0.17680
C762        C  0.31589412  0.25780670  0.53998801     0.10710
S763        S  0.19270067  0.18156074  0.49681970    -0.32650
S764        S  0.36411879  0.28637309  0.55701003    -0.32650
H765        H  0.35321177  0.30794892  0.57481639     0.28720
H766        H  0.20466843  0.16151094  0.47840231     0.28710
H767        H  0.23212895  0.26039156  0.51870152     0.19300
H768        H  0.32421587  0.20710779  0.53564911     0.19310
C769        C  0.43341703  0.34451245  0.68772626    -0.06520
C770        C  0.43080098  0.31523125  0.66923339    -0.17650
C771        C  0.43985057  0.28617670  0.67741502     0.10670
C772        C  0.45170492  0.28639711  0.70472188    -0.06450
C773        C  0.45393743  0.31540794  0.72328711    -0.17680
C774        C  0.44502312  0.34454792  0.71508912     0.10710
S775        S  0.43497039  0.24959295  0.65228276    -0.32650
S776        S  0.45025770  0.38126935  0.74021649    -0.32650
H777        H  0.46297604  0.41322392  0.72169882     0.28720
H778        H  0.42351190  0.21789616  0.67086268     0.28710
H779        H  0.42125423  0.31483962  0.64822196     0.19300
H780        H  0.46352793  0.31580366  0.74428867     0.19310
C781        C  0.11909103  0.43871053  0.86630020    -0.06520
C782        C  0.08143108  0.41415567  0.85417520    -0.17650
C783        C  0.06984428  0.37510889  0.84657164     0.10670
C784        C  0.09608020  0.36025482  0.85215591    -0.06450
C785        C  0.13385936  0.38491181  0.86407084    -0.17680
C786        C  0.14553791  0.42399799  0.87154545     0.10710
S787        S  0.02180216  0.34624118  0.82942015    -0.32650
S788        S  0.19397227  0.45307380  0.88819276    -0.32650
H789        H  0.18226578  0.47289889  0.90698982     0.28720
H790        H  0.03340672  0.32524555  0.81158752     0.28710
H791        H  0.06098524  0.42547831  0.85079268     0.19300
H792        H  0.15423375  0.37353233  0.86757257     0.19310
C793        C  0.22786787  0.05890974  0.19591741    -0.06520
C794        C  0.18705443  0.02931751  0.19682562    -0.17650
C795        C  0.15721812  0.03903333  0.19231958     0.10670
C796        C  0.16854102  0.07897389  0.18608812    -0.06450
C797        C  0.20935856  0.10851908  0.18486785    -0.17680
C798        C  0.23920881  0.09881680  0.18957514     0.10710
S799        S  0.10534729  0.99948854  0.19518509    -0.32650
S800        S  0.29109187  0.13835968  0.18737990    -0.32650
H801        H  0.30669253  0.11322183  0.18109393     0.28720
H802        H  0.08971339  0.02449609  0.20188162     0.28710
H803        H  0.17838199  0.99892880  0.20268670     0.19300
H804        H  0.21797333  0.13893867  0.17914481     0.19310
C805        C  0.14930810  0.41270501  0.35515660    -0.06520
C806        C  0.12428712  0.37496315  0.36648584    -0.17650
C807        C  0.08511738  0.36355346  0.37392754     0.10670
C808        C  0.07055222  0.39013533  0.36911286    -0.06450
C809        C  0.09566829  0.42803258  0.35798954    -0.17680
C810        C  0.13488802  0.43945311  0.35053928     0.10710
S811        S  0.05574102  0.31525969  0.39000699    -0.32650
S812        S  0.16441797  0.48784383  0.33461522    -0.32650
H813        H  0.18467418  0.47643907  0.31595614     0.28720
H814        H  0.03622132  0.32711282  0.40897868     0.28710
H815        H  0.13537998  0.35430773  0.36941184     0.19300
H816        H  0.08452505  0.44863799  0.35502867     0.19310
C817        C  0.23720880  0.21708343  0.03730828    -0.06520
C818        C  0.25787197  0.20254455  0.05302182    -0.17650
C819        C  0.29748598  0.21340944  0.04709732     0.10670
C820        C  0.31641294  0.23916668  0.02488305    -0.06450
C821        C  0.29578983  0.25392936  0.00933778    -0.17680
C822        C  0.25613853  0.24280972  0.01511785     0.10710
S823        S  0.32122237  0.19245604  0.06804872    -0.32650
S824        S  0.23217331  0.26333384  0.99399055    -0.32650
H825        H  0.19244687  0.23185234  0.99711394     0.28720
H826        H  0.36137833  0.22110718  0.06245769     0.28710
H827        H  0.24311721  0.18313178  0.07035409     0.19300
H828        H  0.31048910  0.27340563  0.99201924     0.19310
C829        C  0.00584077  0.24893073  0.51826733    -0.06520
C830        C  0.04678529  0.27826821  0.51788892    -0.17650
C831        C  0.07623520  0.26813020  0.52319657     0.10670
C832        C  0.06431790  0.22794705  0.52918775    -0.06450
C833        C  0.02339731  0.19861509  0.52926708    -0.17680
C834        C  0.49399314  0.20877579  0.52425791     0.10710
S835        S  0.12833835  0.30749147  0.52215937    -0.32650
S836        S  0.44192451  0.16945538  0.52627972    -0.32650
H837        H  0.42649539  0.19456277  0.53320649     0.28720
H838        H  0.14431713  0.28235573  0.51691887     0.28710
H839        H  0.05584493  0.30889322  0.51244993     0.19300
H840        H  0.01422559  0.16801716  0.53488529     0.19310
C841        C  0.39366747  0.39038381  0.86314430    -0.06520
C842        C  0.35278894  0.36205499  0.86657442    -0.17650
C843        C  0.32334567  0.37243324  0.86232400     0.10670
C844        C  0.33507272  0.41169790  0.85392561    -0.06450
C845        C  0.37593002  0.43992408  0.85018349    -0.17680
C846        C  0.40540328  0.42956600  0.85458436     0.10710
S847        S  0.27151988  0.33466494  0.86829252    -0.32650
S848        S  0.45731945  0.46733656  0.84907775    -0.32650
H849        H  0.47138808  0.44050493  0.84425516     0.28720
H850        H  0.25777881  0.36150232  0.87411676     0.28710
H851        H  0.34397103  0.33232928  0.87409793     0.19300
H852        H  0.38472724  0.46969564  0.84277569     0.19310
C853        C  0.40474736  0.05434767  0.70553585    -0.06520
C854        C  0.41572164  0.07002241  0.67921135    -0.17650
C855        C  0.45451770  0.08339836  0.66986973     0.10670
C856        C  0.48237130  0.07980354  0.68706510    -0.06450
C857        C  0.47153055  0.06454609  0.71350499    -0.17680
C858        C  0.43277656  0.05129821  0.72288806     0.10710
S859        S  0.46673490  0.10534889  0.63608233    -0.32650
S860        S  0.42078125  0.02989099  0.75684285    -0.32650
H861        H  0.38024369  0.00179281  0.75099992     0.28720
H862        H  0.00755190  0.13249603  0.64189248     0.28710
H863        H  0.39432874  0.07297121  0.66624848     0.19300
H864        H  0.49286559  0.06146821  0.72644575     0.19310
C865        C  0.29319887  0.99737837  0.71780026     0.02730
C866        C  0.33032829  0.51304626  0.70416766    -0.13420
C867        C  0.36518656  0.54460960  0.71548936     0.00230
C868        C  0.36345526  0.56394757  0.73878464    -0.11950
C869        C  0.32815582  0.54866416  0.75375510     0.02720
C870        C  0.29231797  0.51538859  0.74313559    -0.11370
H871        H  0.33332807  0.99852593  0.68602267     0.08320
H872        H  0.39108811  0.58950540  0.74634208     0.05850
H873        H  0.26486159  0.50262642  0.75499487     0.05690
C874        C  0.09387015  0.63200486  0.67432328     0.02730
C875        C  0.05703969  0.61783267  0.68813643    -0.13420
C876        C  0.02121756  0.58780163  0.67668760     0.00230
C877        C  0.02147858  0.56805776  0.65313904    -0.11950
C878        C  0.05650855  0.58161243  0.63813433     0.02720
C879        C  0.09333203  0.61370314  0.64879558    -0.11370
H880        H  0.05513535  0.63267236  0.70647641     0.08320
H881        H  0.49312236  0.54357903  0.64552160     0.05850
H882        H  0.12061560  0.62543828  0.63681747     0.05690
C883        C  0.27994764  0.96752407  0.83946962     0.02730
C884        C  0.30139640  0.95235908  0.85376818    -0.13420
C885        C  0.30575700  0.92144819  0.84279585     0.00230
C886        C  0.28777041  0.90387820  0.81808423    -0.11950
C887        C  0.26624311  0.91758123  0.80306495     0.02720
C888        C  0.26192235  0.94956675  0.81383179    -0.11370
H889        H  0.31754980  0.96636281  0.87256480     0.08320
H890        H  0.29207953  0.88002678  0.81009237     0.05850
H891        H  0.24637809  0.96138473  0.80190784     0.05690
C892        C  0.44538019  0.83297749  0.88198572     0.02730
C893        C  0.42741889  0.84996910  0.86568536    -0.13420
C894        C  0.42244502  0.88104727  0.87571352     0.00230
C895        C  0.43706504  0.89744898  0.90136720    -0.11950
C896        C  0.45535624  0.88212103  0.91814498     0.02720
C897        C  0.45993313  0.84979168  0.90841390    -0.11370
H898        H  0.41368303  0.83685012  0.84609022     0.08320
H899        H  0.43233446  0.92133451  0.90872853     0.05850
H900        H  0.47275194  0.83664493  0.92178538     0.05690
C901        C  0.44893526  0.80339990  0.50441414     0.02730
C902        C  0.47150233  0.78908920  0.51823715    -0.13420
C903        C  0.47721067  0.75933650  0.50667698     0.00230
C904        C  0.45971300  0.74228047  0.48174779    -0.11950
C905        C  0.43617660  0.75436706  0.46753939     0.02720
C906        C  0.43064425  0.78533158  0.47885723    -0.11370
H907        H  0.98723188  0.80277810  0.53721832     0.08320
H908        H  0.46518443  0.71942868  0.47327978     0.05850
H909        H  0.41376175  0.79618735  0.46748654     0.05690
C910        C  0.11348280  0.66825209  0.54871765     0.02730
C911        C  0.09674474  0.68624694  0.53223613    -0.13420
C912        C  0.09181069  0.71733136  0.54239228     0.00230
C913        C  0.10523331  0.73262544  0.56845624    -0.11950
C914        C  0.12286699  0.71672879  0.58531254     0.02720
C915        C  0.12731762  0.68435914  0.57544241    -0.11370
H916        H  0.08393861  0.67393466  0.51228979     0.08320
H917        H  0.10046277  0.75642178  0.57595095     0.05850
H918        H  0.13953764  0.67070924  0.58888153     0.05690
C919        C  0.42650381  0.79554591  0.00895730     0.02730
C920        C  0.39077799  0.77902243  0.02437895    -0.13420
C921        C  0.35505428  0.74709158  0.01422497     0.00230
C922        C  0.35430468  0.72936792  0.98938035    -0.11950
C923        C  0.38832550  0.74500475  0.97302721     0.02720
C924        C  0.42504678  0.77802001  0.98295170    -0.11370
H925        H  0.38927125  0.79321003  0.04317646     0.08320
H926        H  0.32585695  0.70476201  0.98197857     0.05850
H927        H  0.45139770  0.79122180  0.96996220     0.05690
C928        C  0.12614539  0.66237052  0.05064809     0.02730
C929        C  0.12610137  0.68121600  0.07584729    -0.13420
C930        C  0.16259499  0.71404952  0.08634314     0.00230
C931        C  0.19782415  0.72777534  0.07136284    -0.11950
C932        C  0.19822965  0.70888316  0.04738260     0.02720
C933        C  0.16293731  0.67718272  0.03674916    -0.11370
H934        H  0.09870313  0.66940887  0.08769687     0.08320
H935        H  0.22611482  0.75230500  0.07902426     0.05850
H936        H  0.16533027  0.66219588  0.01864723     0.05690
C937        C  0.45992849  0.83291888  0.38302411     0.02730
C938        C  0.45996613  0.85033680  0.40886778    -0.13420
C939        C  0.49616409  0.88343811  0.41936786     0.00230
C940        C  0.03109110  0.89877097  0.40392342    -0.11950
C941        C  0.03146318  0.88118202  0.37935634     0.02720
C942        C  0.49619001  0.84991494  0.36826287    -0.11370
H943        H  0.43297695  0.83714315  0.42122516     0.08320
H944        H  0.05927129  0.92324160  0.41178643     0.05850
H945        H  0.49850349  0.83638054  0.34938410     0.05690
C946        C  0.26002984  0.96579331  0.34044776     0.02730
C947        C  0.22387870  0.95077144  0.35520894    -0.13420
C948        C  0.18772039  0.92076145  0.34417473     0.00230
C949        C  0.18674719  0.90249487  0.31958762    -0.11950
C950        C  0.22146557  0.91560930  0.30426291     0.02720
C951        C  0.25865337  0.94761428  0.31467080    -0.11370
H952        H  0.22258604  0.96489656  0.37409661     0.08320
H953        H  0.15792127  0.87902091  0.31179810     0.05850
H954        H  0.28559527  0.95936932  0.30232852     0.05690
C955        C  0.11329872  0.63458031  0.17138196     0.02730
C956        C  0.13468076  0.61942608  0.18574058    -0.13420
C957        C  0.13951210  0.58887533  0.17467479     0.00230
C958        C  0.12197573  0.57155752  0.14983234    -0.11950
C959        C  0.09979064  0.58461517  0.13500986     0.02720
C960        C  0.09521457  0.61647845  0.14576869    -0.11370
H961        H  0.15047589  0.63319792  0.20468566     0.08320
H962        H  0.12678080  0.54807787  0.14173482     0.05850
H963        H  0.07933156  0.62799351  0.13391677     0.05690
C964        C  0.27844405  0.00061157  0.21526850     0.02730
C965        C  0.29289014  0.51741385  0.24177606    -0.13420
C966        C  0.28853943  0.54998451  0.25142367     0.00230
C967        C  0.27032615  0.56527043  0.23458538    -0.11950
C968        C  0.25611829  0.54912911  0.20881746     0.02720
C969        C  0.26099888  0.51795970  0.19884738    -0.11370
H970        H  0.30560680  0.50422603  0.25519596     0.08320
H971        H  0.26558167  0.58915349  0.24192201     0.05850
H972        H  0.24764215  0.00511375  0.17911685     0.05690
C973        C  0.04125949  0.74946909  0.83918163     0.02730
C974        C  0.05663677  0.78621760  0.85321333    -0.13420
C975        C  0.08727870  0.82135348  0.84195969     0.00230
C976        C  0.10553689  0.82076831  0.81782448    -0.11950
C977        C  0.09167013  0.78549532  0.80296910     0.02720
C978        C  0.05927997  0.74920785  0.81368482    -0.11370
H979        H  0.04256732  0.78870023  0.87175555     0.08320
H980        H  0.12959778  0.84892830  0.80993098     0.05850
H981        H  0.04722260  0.72177956  0.80184039     0.05690
C982        C  0.17366927  0.54845282  0.88254833     0.02730
C983        C  0.15756411  0.51280492  0.86707466    -0.13420
C984        C  0.12724950  0.97679768  0.87768950     0.00230
C985        C  0.10972367  0.97552601  0.90261353    -0.11950
C986        C  0.12406594  0.50968665  0.91869521     0.02720
C987        C  0.15631834  0.54670357  0.90867860    -0.11370
H988        H  0.17114992  0.51167507  0.84791198     0.08320
H989        H  0.08603812  0.94684541  0.91010497     0.05850
H990        H  0.16890087  0.57318815  0.92156494     0.05690
C991        C  0.37789027  0.90023536  0.67368035     0.02730
C992        C  0.39288289  0.87854692  0.68778745    -0.13420
C993        C  0.42426828  0.87446091  0.67707839     0.00230
C994        C  0.44300483  0.89371058  0.65309191    -0.11950
C995        C  0.42843677  0.91391974  0.63768343     0.02720
C996        C  0.39587903  0.91784627  0.64810419    -0.11370
H997        H  0.37797303  0.86157549  0.70597912     0.08320
H998        H  0.46798794  0.89070684  0.64565476     0.05850
H999        H  0.38359061  0.93269090  0.63592304     0.05690
C1000       C  0.01083324  0.73440757  0.71850424     0.02730
C1001       C  0.99465224  0.75508976  0.70449913    -0.13420
C1002       C  0.46219760  0.75732184  0.71512777     0.00230
C1003       C  0.44377465  0.73734903  0.73895180    -0.11950
C1004       C  0.45953988  0.71814670  0.75431052     0.02720
C1005       C  0.49300709  0.71586735  0.74392274    -0.11370
H1006       H  0.00920763  0.77253627  0.68639167     0.08320
H1007       H  0.41799997  0.73901955  0.74633375     0.05850
H1008       H  0.00598689  0.70156025  0.75597084     0.05690
C1009       C  0.20980487  0.58428898  0.50549581     0.02730
C1010       C  0.22625555  0.62061249  0.52017683    -0.13420
C1011       C  0.25736852  0.65577743  0.50923563     0.00230
C1012       C  0.27504390  0.65548969  0.48473086    -0.11950
C1013       C  0.26009454  0.62061417  0.46926249     0.02720
C1014       C  0.22728590  0.58439676  0.47969495    -0.11370
H1015       H  0.21259865  0.62288401  0.53899069     0.08320
H1016       H  0.29937629  0.68361681  0.47700613     0.05850
H1017       H  0.21446687  0.55734201  0.46739006     0.05690
C1018       C  0.34243742  0.88316957  0.54949428     0.02730
C1019       C  0.32472343  0.88187337  0.57543444    -0.13420
C1020       C  0.29317426  0.84476805  0.58595543     0.00230
C1021       C  0.28011854  0.81009540  0.57060818    -0.11950
C1022       C  0.29797929  0.81103185  0.54590994     0.02720
C1023       C  0.32753070  0.84698914  0.53479507    -0.11370
H1024       H  0.33643808  0.90884414  0.58776030     0.08320
H1025       H  0.25692365  0.78137575  0.57839127     0.05850
H1026       H  0.34132989  0.84562235  0.51579394     0.05690
C1027       C  0.21063496  0.56736458  0.00797136     0.02730
C1028       C  0.22729233  0.54811312  0.02317978    -0.13420
C1029       C  0.25832958  0.54364197  0.01243645     0.00230
C1030       C  0.27650464  0.56157114  0.98807418    -0.11950
C1031       C  0.26089227  0.58009595  0.97196503     0.02720
C1032       C  0.22784347  0.58353678  0.98194341    -0.11370
H1033       H  0.21355319  0.53259778  0.04206989     0.08320
H1034       H  0.30134005  0.55819378  0.98078148     0.05850
H1035       H  0.21454428  0.59674918  0.96908441     0.05690
C1036       C  0.34473581  0.90215830  0.05170103     0.02730
C1037       C  0.33190152  0.92648349  0.03886835    -0.13420
C1038       C  0.30353835  0.93356000  0.05120102     0.00230
C1039       C  0.28440169  0.91395905  0.07488096    -0.11950
C1040       C  0.29554253  0.88932023  0.08837454     0.02720
C1041       C  0.32619305  0.88330064  0.07685536    -0.11370
H1042       H  0.34640634  0.94317091  0.02048127     0.08320
H1043       H  0.26127695  0.91927637  0.08315927     0.05850
H1044       H  0.33644134  0.86559810  0.08776187     0.05690
C1045       C  0.17777286  0.56847254  0.38381622     0.02730
C1046       C  0.16101223  0.58808262  0.36923919    -0.13420
C1047       C  0.12994568  0.59207527  0.38037564     0.00230
C1048       C  0.11252999  0.57417104  0.40490680    -0.11950
C1049       C  0.12766740  0.55426452  0.42017852     0.02720
C1050       C  0.16049362  0.55099582  0.40959206    -0.11370
H1051       H  0.17442538  0.60391518  0.35037861     0.08320
H1052       H  0.08816924  0.57789043  0.41276232     0.05850
H1053       H  0.17349523  0.53683268  0.42176917     0.05690
C1054       C  0.04448608  0.73396808  0.34001748     0.02730
C1055       C  0.05943574  0.71283098  0.35479751    -0.13420
C1056       C  0.08867318  0.70599144  0.34356967     0.00230
C1057       C  0.10620389  0.72242734  0.31873163    -0.11950
C1058       C  0.09320109  0.74415801  0.30350242     0.02720
C1059       C  0.06197391  0.75009115  0.31409274    -0.11370
H1060       H  0.04584135  0.69803702  0.37391553     0.08320
H1061       H  0.12918044  0.71659674  0.31082465     0.05850
H1062       H  0.05025897  0.76536073  0.30180072     0.05690
C1063       C  0.00704348  0.71583007  0.21440424     0.02730
C1064       C  0.49025432  0.68029991  0.19874393    -0.13420
C1065       C  0.45973098  0.64424695  0.20928993     0.00230
C1066       C  0.44342904  0.64307289  0.23479517    -0.11950
C1067       C  0.45803557  0.67737342  0.25084735     0.02720
C1068       C  0.49011544  0.71423905  0.24064024    -0.11370
H1069       H  0.00326751  0.67934777  0.17928372     0.08320
H1070       H  0.42006748  0.61447264  0.24259876     0.05850
H1071       H  0.50301206  0.74074486  0.25351850     0.05690
C1072       C  0.37546604  0.91655555  0.17294613     0.02730
C1073       C  0.39200513  0.95299045  0.18754225    -0.13420
C1074       C  0.42296641  0.98825621  0.17648046     0.00230
C1075       C  0.43968266  0.98771072  0.15153260    -0.11950
C1076       C  0.42519016  0.95244357  0.13649394     0.02720
C1077       C  0.39283021  0.91633337  0.14722657    -0.11370
H1078       H  0.37866325  0.95516586  0.20653368     0.08320
H1079       H  0.46337518  0.51579960  0.14331369     0.05850
H1080       H  0.38013408  0.88907249  0.13513898     0.05690
C1081       C  0.27523620  0.74977667  0.34076183     0.02730
C1082       C  0.29475181  0.78535953  0.35637966    -0.13420
C1083       C  0.29982158  0.82125165  0.34605189     0.00230
C1084       C  0.28393299  0.82236256  0.32076000    -0.11950
C1085       C  0.26402846  0.78814603  0.30460625     0.02720
C1086       C  0.25934767  0.75133740  0.31464272    -0.11370
H1087       H  0.30938213  0.78643535  0.37566904     0.08320
H1088       H  0.28879239  0.85089357  0.31319737     0.05850
H1089       H  0.24534364  0.72485845  0.30173837     0.05690
C1090       C  0.44120121  0.54926627  0.38361881     0.02730
C1091       C  0.42139390  0.51312522  0.36867133    -0.13420
C1092       C  0.41742860  0.97790794  0.37933832     0.00230
C1093       C  0.43469258  0.97804232  0.40430685    -0.11950
C1094       C  0.45493441  0.51288160  0.41989144     0.02720
C1095       C  0.45858954  0.54908508  0.40948471    -0.11370
H1096       H  0.40584111  0.51109773  0.34961681     0.08320
H1097       H  0.43066340  0.94992740  0.41209818     0.05850
H1098       H  0.47300078  0.57607377  0.42186951     0.05690
C1099       C  0.27446666  0.71545108  0.71818163     0.02730
C1100       C  0.25340864  0.67888381  0.70383004    -0.13420
C1101       C  0.24873217  0.64379364  0.71514044     0.00230
C1102       C  0.26766354  0.64437124  0.73933165    -0.11950
C1103       C  0.28839559  0.67933381  0.75454630     0.02720
C1104       C  0.29228553  0.71555675  0.74395069    -0.11370
H1105       H  0.23709121  0.67647684  0.68507049     0.08320
H1106       H  0.26404142  0.61632967  0.74697461     0.05850
H1107       H  0.30728846  0.74278160  0.75606643     0.05690
C1108       C  0.10968738  0.91559152  0.67354602     0.02730
C1109       C  0.13220112  0.95197949  0.68791912    -0.13420
C1110       C  0.13921772  0.98789757  0.67649515     0.00230
C1111       C  0.12109933  0.98855731  0.65217690    -0.11950
C1112       C  0.09861138  0.95382296  0.63705881     0.02720
C1113       C  0.09269260  0.91672498  0.64768932    -0.11370
H1114       H  0.14789477  0.95343585  0.70679155     0.08320
H1115       H  0.12643651  0.51720567  0.64449116     0.05850
H1116       H  0.07663358  0.88961618  0.63554615     0.05690
C1117       C  0.42655489  0.56474361  0.50509268     0.02730
C1118       C  0.38940714  0.54261060  0.51853762    -0.13420
C1119       C  0.35423994  0.53826268  0.50702336     0.00230
C1120       C  0.35550598  0.55900023  0.48369251    -0.11950
C1121       C  0.39100326  0.58032536  0.46905884     0.02720
C1122       C  0.42720033  0.58370511  0.47984191    -0.11370
H1123       H  0.38669034  0.52532052  0.53671552     0.08320
H1124       H  0.32754089  0.55606219  0.47603357     0.05850
H1125       H  0.45482230  0.59920646  0.46822375     0.05690
C1126       C  0.12636866  0.89861999  0.54936805     0.02730
C1127       C  0.16314012  0.92045737  0.53537819    -0.13420
C1128       C  0.19878494  0.92544366  0.54660997     0.00230
C1129       C  0.19834369  0.90547642  0.57018033    -0.11950
C1130       C  0.16342071  0.88478093  0.58540234     0.02720
C1131       C  0.12678068  0.88084920  0.57492635    -0.11370
H1132       H  0.16521979  0.93717104  0.51702318     0.08320
H1133       H  0.22656101  0.90880915  0.57764394     0.05850
H1134       H  0.09958841  0.86586370  0.58703262     0.05690
C1135       C  0.29267780  0.73114784  0.21467592     0.02730
C1136       C  0.32850067  0.75125370  0.19945711    -0.13420
C1137       C  0.36472576  0.75693787  0.21006073     0.00230
C1138       C  0.36600638  0.74082608  0.23512434    -0.11950
C1139       C  0.33153429  0.72029425  0.25091155     0.02720
C1140       C  0.29435177  0.71517694  0.24064955    -0.11370
H1141       H  0.32950555  0.76600050  0.18034167     0.08320
H1142       H  0.39484375  0.74610255  0.24284317     0.05850
H1143       H  0.26766181  0.70078054  0.25328458     0.05690
C1144       C  0.09248655  0.89840270  0.17355939     0.02730
C1145       C  0.05666420  0.87997823  0.18883820    -0.13420
C1146       C  0.02125634  0.87640886  0.17832218     0.00230
C1147       C  0.02109671  0.89324949  0.15334175    -0.11950
C1148       C  0.05568539  0.91202930  0.13743750     0.02720
C1149       C  0.09195295  0.91506347  0.14762172    -0.11370
H1150       H  0.05480326  0.86472704  0.20788625     0.08320
H1151       H  0.99284239  0.88953804  0.14562476     0.05850
H1152       H  0.11862216  0.92824532  0.13494276     0.05690
C1153       C  0.44215176  0.58045925  0.00723579     0.02730
C1154       C  0.46505998  0.61665730  0.02175038    -0.13420
C1155       C  0.47422085  0.65299563  0.00993910     0.00230
C1156       C  0.45783419  0.65443900  0.98503553    -0.11950
C1157       C  0.43323061  0.61960852  0.97044432     0.02720
C1158       C  0.42564483  0.58208802  0.98134394    -0.11370
H1159       H  0.47961180  0.61755379  0.04104033     0.08320
H1160       H  0.46509146  0.68348158  0.97693201     0.05850
H1161       H  0.40857088  0.55492325  0.96940122     0.05690
C1162       C  0.10811483  0.88103612  0.04986462     0.02730
C1163       C  0.08851198  0.84481594  0.03495682    -0.13420
C1164       C  0.08517699  0.80995496  0.04575393     0.00230
C1165       C  0.10345706  0.81051916  0.07029203    -0.11950
C1166       C  0.12261158  0.84519532  0.08604016     0.02720
C1167       C  0.12554414  0.88109523  0.07574357    -0.11370
H1168       H  0.07228391  0.84234495  0.01614266     0.08320
H1169       H  0.10025876  0.78262869  0.07789583     0.05850
H1170       H  0.13930202  0.90796486  0.08826449     0.05690
C1171       C  0.25870078  0.73018943  0.83977993     0.02730
C1172       C  0.22167668  0.70956161  0.85366252    -0.13420
C1173       C  0.18706854  0.70787961  0.84305398     0.00230
C1174       C  0.18905944  0.72852555  0.81943611    -0.11950
C1175       C  0.22406331  0.74725775  0.80404842     0.02720
C1176       C  0.25965713  0.74902671  0.81444442    -0.11370
H1177       H  0.21854245  0.69163314  0.87155440     0.08320
H1178       H  0.16175411  0.72732977  0.81202351     0.05850
H1179       H  0.28694553  0.76302325  0.80239464     0.05690
C1180       C  0.45843043  0.56313211  0.88264418     0.02730
C1181       C  0.49512239  0.58474794  0.86845462    -0.13420
C1182       C  0.03066991  0.58826617  0.87889926     0.00230
C1183       C  0.03002172  0.56826304  0.90256612    -0.11950
C1184       C  0.49539011  0.54856923  0.91817745     0.02720
C1185       C  0.45889336  0.54517474  0.90803867    -0.11370
H1186       H  0.49722710  0.60224155  0.85053808     0.08320
H1187       H  0.05797678  0.57076715  0.90983920     0.05850
H1188       H  0.43190000  0.53063675  0.92037452     0.05690
O1189       O  0.36681021  0.58637577  0.79244350    -0.80530
O1190       O  0.23526321  0.61081496  0.89108684    -0.82080
O1191       O  0.27699712  0.52776050  0.83248114    -0.79100
O1192       O  0.28798330  0.64035599  0.79276363    -0.77490
O1193       O  0.33648045  0.70668019  0.79020702    -0.79280
O1194       O  0.30273398  0.51964500  0.87274534    -0.80210
O1195       O  0.22744036  0.57795030  0.85048509    -0.81540
O1196       O  0.30008357  0.56797659  0.78955908    -0.81830
Eu1197     Eu  0.29455288  0.59913446  0.83064366     2.39200
O1198       O  0.30982252  0.66211817  0.84652538    -0.89340
O1199       O  0.34497929  0.58578716  0.84665298    -0.92940
C1200       C  0.33145698  0.56813372  0.78052678     1.01750
C1201       C  0.21382794  0.58248478  0.87372899     1.01570
C1202       C  0.28516976  0.50674249  0.84915943     1.01510
C1203       C  0.30491118  0.67560862  0.78113678     0.99370
H1204       H  0.27210240  0.57480521  0.88609914     0.29120
O1205       O  0.29602190  0.59750318  0.87895267    -1.01720
H1206       H  0.35863713  0.64818780  0.79548675     0.29150
O1207       O  0.35874775  0.64812256  0.81527516    -1.04260
O1208       O  0.34801372  0.70686290  0.93443133    -0.81490
O1209       O  0.48035861  0.68611747  0.83244937    -0.81030
O1210       O  0.29990811  0.57901965  0.93391530    -0.79470
O1211       O  0.32132944  0.73134480  0.83289622    -0.82810
O1212       O  0.42132397  0.71854157  0.79273782    -0.80660
O1213       O  0.39619570  0.56234335  0.89105188    -0.79310
O1214       O  0.43192553  0.65967564  0.93313583    -0.80830
O1215       O  0.44580347  0.77170176  0.89103631    -0.82750
O1216       O  0.38507254  0.59273190  0.93494961    -0.79490
O1217       O  0.42037875  0.77881172  0.85032725    -0.82170
O1218       O  0.27791990  0.62437430  0.93501733    -0.77900
O1219       O  0.42884836  0.58726324  0.85046825    -0.77940
O1220       O  0.43981139  0.67065258  0.78999158    -0.77580
O1221       O  0.28636088  0.70466638  0.87245026    -0.81080
O1222       O  0.41557741  0.72818527  0.93576701    -0.80500
O1223       O  0.48854418  0.72123561  0.87204354    -0.78830
Eu1224     Eu  0.30859796  0.66127671  0.89454358     2.39770
Eu1225     Eu  0.40814406  0.63340965  0.83071269     2.39570
Eu1226     Eu  0.34623912  0.58543367  0.89469911     2.38400
Eu1227     Eu  0.37394925  0.71197871  0.83087568     2.39880
Eu1228     Eu  0.42301787  0.69888736  0.89465364     2.39790
O1229       O  0.42223395  0.69718784  0.84665035    -0.93250
O1230       O  0.35942852  0.64871534  0.90958317    -0.92140
C1231       C  0.38382150  0.72605697  0.94580395     1.01920
C1232       C  0.50159735  0.71578007  0.84885501     1.00640
C1233       C  0.28015480  0.59497045  0.94502546     1.00030
C1234       C  0.29186841  0.72321038  0.84931423     1.02050
C1235       C  0.43978756  0.70180101  0.78097201     1.00960
C1236       C  0.42439631  0.56922214  0.87371810     0.99810
C1237       C  0.41599846  0.62413264  0.94432109     0.99870
C1238       C  0.43877761  0.79271385  0.87353163     1.02480
H1239       H  0.43294527  0.63530482  0.88597499     0.29860
O1240       O  0.41012654  0.63659315  0.87896267    -1.05410
H1241       H  0.37262104  0.73499588  0.88640227     0.31910
O1242       O  0.37123809  0.71107976  0.87917686    -1.07970
O1243       O  0.45361080  0.92069270  0.95635826    -0.80530
O1244       O  0.10915915  0.94319344  0.05744368    -0.82080
O1245       O  0.08452469  0.96942081  0.95663905    -0.79100
O1246       O  0.48818979  0.85720909  0.00005272    -0.77490
O1247       O  0.45542992  0.85008716  0.04053682    -0.79280
O1248       O  0.10596178  0.53659562  0.95546288    -0.80210
O1249       O  0.08233536  0.90864929  0.01752576    -0.81540
O1250       O  0.49986957  0.89966399  0.95538771    -0.81830
Eu1251     Eu  0.03798637  0.93013870  0.99598335     2.39200
O1252       O  0.03930473  0.93174421  0.04408290    -0.89340
O1253       O  0.02473676  0.98007250  0.98092372    -0.92940
C1254       C  0.46999246  0.90139664  0.94526950     1.01750
C1255       C  0.10105879  0.91405708  0.04070405     1.01570
C1256       C  0.10418628  0.00506884  0.94552590     1.01510
C1257       C  0.46009457  0.83610956  0.01748669     0.99370
H1258       H  0.11207628  0.99390262  0.00433723     0.29120
O1259       O  0.08806815  0.99248648  0.01155170    -1.01720
H1260       H  0.45138554  0.89352782  0.00459439     0.29150
O1261       O  0.47410509  0.91758620  0.01175925    -1.04260
O1262       O  0.09847057  0.54451524  0.09720476    -0.81490
O1263       O  0.43868474  0.51717979  0.99915973    -0.81030
O1264       O  0.14863346  0.56717029  0.99949556    -0.79470
O1265       O  0.51623375  0.91012527  0.09881399    -0.82810
O1266       O  0.40441806  0.89792573  0.05818060    -0.80660
O1267       O  0.03529711  0.54952037  0.95650043    -0.79310
O1268       O  0.06281883  0.60177771  0.05772558    -0.80830
O1269       O  0.46350408  0.49061784  0.09806235    -0.82750
O1270       O  0.09730876  0.60911366  0.01805736    -0.79490
O1271       O  0.44497376  0.92429754  0.10085038    -0.82170
O1272       O  0.15656461  0.54160850  0.03978728    -0.77900
O1273       O  0.46777059  0.50349010  0.95491603    -0.77940
O1274       O  0.39568943  0.92305842  0.01792864    -0.77580
O1275       O  0.08305087  0.95825378  0.10099093    -0.81080
O1276       O  0.05014196  0.56260654  0.10006066    -0.80500
O1277       O  0.46354425  0.54948379  0.04006859    -0.78830
Eu1278     Eu  0.08974691  0.99556052  0.05983094     2.39770
Eu1279     Eu  0.46126149  0.96695655  0.99588624     2.39570
Eu1280     Eu  0.07529668  0.54346992  0.99593073     2.38400
Eu1281     Eu  0.47629628  0.91701988  0.06016233     2.39880
Eu1282     Eu  0.01068944  0.52983846  0.05978658     2.39790
O1283       O  0.46243867  0.96670972  0.04396773    -0.93250
O1284       O  0.07443211  0.54325679  0.04390730    -0.92140
C1285       C  0.08205392  0.56334476  0.10881171     1.01920
C1286       C  0.44595564  0.54543960  0.01654812     1.00640
C1287       C  0.17015470  0.56028818  0.01674603     1.00030
C1288       C  0.05177130  0.92733584  0.11042737     1.02050
C1289       C  0.38317526  0.90595640  0.04155006     1.00960
C1290       C  0.99954308  0.53320602  0.94508040     0.99810
C1291       C  0.09223484  0.62257948  0.04120249     0.99870
C1292       C  0.44502667  0.95558439  0.10984593     1.02480
H1293       H  0.01179348  0.55361531  0.00422484     0.29860
O1294       O  0.01294484  0.53099128  0.01146150    -1.05410
H1295       H  0.02613739  0.98150827  0.09524362     0.31910
O1296       O  0.02583390  0.98110106  0.07545299    -1.07970
O1297       O  0.43410261  0.71405961  0.42968224    -0.80530
O1298       O  0.27397375  0.68757803  0.33206178    -0.82080
O1299       O  0.39744217  0.77159247  0.39023371    -0.79100
O1300       O  0.29852017  0.65956896  0.43093775    -0.77490
O1301       O  0.27985376  0.59314907  0.43329796    -0.79280
O1302       O  0.43287789  0.77871168  0.35104297    -0.80210
O1303       O  0.29976368  0.72036990  0.37270963    -0.81540
O1304       O  0.38589306  0.73221480  0.43288395    -0.81830
Eu1305     Eu  0.34592761  0.69956317  0.39263320     2.39200
O1306       O  0.29746092  0.63664047  0.37655047    -0.89340
O1307       O  0.40966188  0.71298700  0.37651969    -0.92940
C1308       C  0.41790389  0.73294401  0.44144550     1.01750
C1309       C  0.28134531  0.71586506  0.34947162     1.01570
C1310       C  0.42699181  0.79244666  0.37381464     1.01510
C1311       C  0.27995992  0.62431381  0.44253171     0.99370
H1312       H  0.34721093  0.72341909  0.33705691     0.29120
O1313       O  0.34838636  0.70078416  0.34424325    -1.01720
H1314       H  0.36121347  0.65095064  0.42788106     0.29150
O1315       O  0.36085870  0.65063814  0.40808899    -1.04260
O1316       O  0.28772881  0.58979377  0.28928179    -0.81490
O1317       O  0.44370943  0.61233621  0.39063786    -0.81030
O1318       O  0.37180855  0.72107371  0.28908217    -0.79470
O1319       O  0.23904854  0.56690338  0.39069572    -0.82810
O1320       O  0.35216760  0.58011230  0.43062087    -0.80660
O1321       O  0.48375727  0.73615515  0.33183151    -0.79310
O1322       O  0.41899417  0.63765539  0.28907507    -0.80830
O1323       O  0.32257958  0.52673425  0.33203385    -0.82750
O1324       O  0.44046827  0.70483261  0.28773981    -0.79490
O1325       O  0.29000813  0.51969989  0.37256949    -0.82170
O1326       O  0.30427274  0.67501121  0.28763367    -0.77540
O1327       O  0.49140818  0.71081388  0.37230781    -0.77940
O1328       O  0.41887363  0.62822942  0.43348695    -0.77580
O1329       O  0.23106080  0.59435946  0.35134117    -0.81080
O1330       O  0.33369860  0.56836057  0.28835970    -0.80500
O1331       O  0.41580938  0.57717341  0.35111144    -0.78830
Eu1332     Eu  0.29639367  0.63722919  0.32843561     2.39770
Eu1333     Eu  0.42470347  0.66503784  0.39233032     2.39570
Eu1334     Eu  0.41067273  0.71319316  0.32844417     2.38400
Eu1335     Eu  0.31118235  0.58669753  0.39251764     2.39880
Eu1336     Eu  0.37262355  0.59954213  0.32856853     2.39790
O1337       O  0.37409677  0.60125342  0.37659271    -0.93250
O1338       O  0.35975892  0.64985803  0.31354941    -0.92140
C1339       C  0.30369424  0.56995639  0.27834557     1.01920
C1340       C  0.43478903  0.58267354  0.37421667     1.00640
C1341       C  0.33600119  0.70488486  0.27779009     1.00030
C1342       C  0.21786659  0.57542129  0.37434605     1.02050
C1343       C  0.38755382  0.59698778  0.44248292     1.00960
C1344       C  0.50494653  0.72884385  0.34908084     0.99810
C1345       C  0.43853980  0.67316360  0.27783066     0.99870
C1346       C  0.29433395  0.50576251  0.34937118     1.02480
H1347       H  0.44685769  0.66293026  0.33677238     0.29860
O1348       O  0.42302035  0.66184736  0.34401785    -1.05410
H1349       H  0.28608242  0.56358421  0.33712404     0.31910
O1350       O  0.30892757  0.58759889  0.34421091    -1.07970
O1351       O  0.23035831  0.93651289  0.72463177    -0.80530
O1352       O  0.25316656  0.80483677  0.62383041    -0.82080
O1353       O  0.31665768  0.90183309  0.66594817    -0.79100
O1354       O  0.20323830  0.88511894  0.62362657    -0.77490
O1355       O  0.13572002  0.83910505  0.62192251    -0.79280
O1356       O  0.32486910  0.87669340  0.70635208    -0.80210
O1357       O  0.27413455  0.87187198  0.62227624    -0.81540
O1358       O  0.26541612  0.94421450  0.68514862    -0.81830
Eu1359     Eu  0.24337437  0.87871054  0.66284066     2.39200
O1360       O  0.19270433  0.81533627  0.64784477    -0.89340
O1361       O  0.24236200  0.87855956  0.71091524    -0.92940
C1362       C  0.25986035  0.95749624  0.70820937     1.01750
C1363       C  0.27276221  0.84038646  0.61258177     1.01570
C1364       C  0.33817184  0.89469901  0.68304226     1.01510
C1365       C  0.16749131  0.86898043  0.61219744     0.99370
H1366       H  0.28001970  0.82886944  0.67129856     0.29120
O1367       O  0.25617240  0.82777302  0.67851658    -1.01720
H1368       H  0.17986794  0.88858865  0.67128357     0.29150
O1369       O  0.18095573  0.86592482  0.67849180    -1.04260
O1370       O  0.15658060  0.69271146  0.66638525    -0.81490
O1371       O  0.13057024  0.82418909  0.76476845    -0.81030
O1372       O  0.27704781  0.77845643  0.72507271    -0.79470
O1373       O  0.12109428  0.75530888  0.62353316    -0.82810
O1374       O  0.10669436  0.85247012  0.66575912    -0.80660
O1375       O  0.26611710  0.87895639  0.76472141    -0.79310
O1376       O  0.18523763  0.74601114  0.76532058    -0.80830
O1377       O  0.07206910  0.73249531  0.72514112    -0.82750
O1378       O  0.25203733  0.79408192  0.76790902    -0.79490
O1379       O  0.06368183  0.75941733  0.68566381    -0.82170
O1380       O  0.24991084  0.74363876  0.68529823    -0.77900
O1381       O  0.21737245  0.89651559  0.76756813    -0.77940
O1382       O  0.13199906  0.88525919  0.70647449    -0.77580
O1383       O  0.16764079  0.73461844  0.62247580    -0.81080
O1384       O  0.12378607  0.68518782  0.70691625    -0.80500
O1385       O  0.11246130  0.75796796  0.76756187    -0.78830
Eu1386     Eu  0.20620147  0.76552300  0.66292488     2.39770
Eu1387     Eu  0.17833955  0.86467925  0.72681255     2.39570
Eu1388     Eu  0.25798399  0.83103794  0.72678365     2.38400
Eu1389     Eu  0.12910634  0.80214918  0.66279884     2.39880
Eu1390     Eu  0.14429623  0.75197857  0.72687806     2.39790
O1391       O  0.13016195  0.80160123  0.71087635    -0.93250
O1392       O  0.20749601  0.76716681  0.71098930    -0.92140
C1393       C  0.12824308  0.67158673  0.68361928     1.01920
C1394       C  0.11210672  0.78903954  0.77650169     1.00640
C1395       C  0.26849596  0.74899575  0.70856088     1.00030
C1396       C  0.13751482  0.73601968  0.61246043     1.02050
C1397       C  0.11413692  0.88094193  0.68298744     1.00960
C1398       C  0.24919181  0.89716038  0.77649660     0.99810
C1399       C  0.22067042  0.76309263  0.77712982     0.99870
C1400       C  0.05073069  0.74089982  0.70882642     1.02480
H1401       H  0.19392210  0.81635073  0.76202716     0.29860
O1402       O  0.19376791  0.81608835  0.74223701    -1.05410
H1403       H  0.11944876  0.72885842  0.67138033     0.31910
O1404       O  0.14218725  0.75289093  0.67854201    -1.07970
O1405       O  0.20176976  0.75364258  0.12461619    -0.80530
O1406       O  0.06869784  0.77793187  0.22306149    -0.82080
O1407       O  0.11000630  0.69464936  0.16450267    -0.79100
O1408       O  0.12140011  0.80631464  0.12446689    -0.77490
O1409       O  0.16940618  0.87288208  0.12247871    -0.79280
O1410       O  0.13701564  0.68713492  0.20437520    -0.80210
O1411       O  0.06120588  0.74482199  0.18258464    -0.81540
O1412       O  0.13491189  0.73467541  0.12185143    -0.81830
Eu1413     Eu  0.12839711  0.76616156  0.16271881     2.39200
O1414       O  0.14289446  0.82891915  0.17893040    -0.89340
O1415       O  0.17900491  0.75314220  0.17878939    -0.92940
C1416       C  0.16630972  0.73478202  0.11283190     1.01750
C1417       C  0.04740001  0.74957838  0.20568363     1.01570
C1418       C  0.11868228  0.67387946  0.18104081     1.01510
C1419       C  0.13835754  0.84161315  0.11298528     0.99370
H1420       H  0.10592011  0.74189891  0.21810151     0.29120
O1421       O  0.12991079  0.76461446  0.21105014    -1.01720
H1422       H  0.19262599  0.81589811  0.12783863     0.29150
O1423       O  0.19248265  0.81575963  0.14762812    -1.04260
O1424       O  0.18125695  0.87507051  0.26633408    -0.81490
O1425       O  0.31425456  0.85376677  0.16568168    -0.81030
O1426       O  0.13306173  0.74431680  0.26567096    -0.79470
O1427       O  0.15474188  0.89912703  0.16586903    -0.82810
O1428       O  0.25547198  0.88753083  0.12618717    -0.80660
O1429       O  0.23027780  0.72986865  0.22327575    -0.79310
O1430       O  0.26452753  0.82800920  0.26659940    -0.80830
O1431       O  0.27900987  0.93927857  0.22396957    -0.82750
O1432       O  0.21852435  0.76075875  0.26763968    -0.79490
O1433       O  0.25291186  0.94629077  0.18352948    -0.82170
O1434       O  0.11169864  0.79011048  0.26738059    -0.77900
O1435       O  0.26284806  0.75526663  0.18275572    -0.77940
O1436       O  0.27373007  0.83958793  0.12269973    -0.77580
O1437       O  0.11996904  0.87175838  0.20536627    -0.81080
O1438       O  0.24887590  0.89689476  0.26796478    -0.80500
O1439       O  0.32205982  0.88881111  0.20527158    -0.78830
Eu1440     Eu  0.14196468  0.82802603  0.22701745     2.39770
Eu1441     Eu  0.24203600  0.80131656  0.16308521     2.39570
Eu1442     Eu  0.18024306  0.75270566  0.22682657     2.38400
Eu1443     Eu  0.20693562  0.87935045  0.16356193     2.39880
Eu1444     Eu  0.25629614  0.86644042  0.22737011     2.39790
O1445       O  0.25551403  0.86485313  0.17931141    -0.93250
O1446       O  0.19287858  0.81569281  0.24212538    -0.92140
C1447       C  0.21706911  0.89507021  0.27764160     1.01920
C1448       C  0.33538646  0.88325271  0.18225496     1.00640
C1449       C  0.11336219  0.76013467  0.27694941     1.00030
C1450       C  0.12549589  0.89088641  0.18250037     1.02050
C1451       C  0.27420789  0.87125517  0.11427388     1.00960
C1452       C  0.25847922  0.73702039  0.20590038     0.99810
C1453       C  0.24848354  0.79242421  0.27768196     0.99870
C1454       C  0.27169210  0.96027781  0.20664657     1.02480
H1455       H  0.26680899  0.80309473  0.21859634     0.29860
O1456       O  0.24403900  0.80435315  0.21142935    -1.05410
H1457       H  0.20553220  0.90200574  0.21896501     0.31910
O1458       O  0.20434131  0.87816834  0.21176995    -1.07970
O1459       O  0.01680858  0.54262129  0.59974802    -0.80530
O1460       O  0.14849201  0.52135968  0.49840692    -0.82080
O1461       O  0.09832504  0.49385233  0.59932383    -0.79100
O1462       O  0.11368142  0.60672746  0.55721638    -0.77490
O1463       O  0.08781395  0.61413001  0.51677044    -0.79280
O1464       O  0.05171803  0.92681659  0.60086417    -0.80210
O1465       O  0.15663380  0.55627067  0.53809730    -0.81540
O1466       O  0.08426088  0.56369786  0.60161555    -0.81830
Eu1467     Eu  0.09095280  0.53388537  0.56053328     2.39200
O1468       O  0.09009998  0.53240558  0.51246008    -0.89340
O1469       O  0.02734540  0.98373036  0.57539251    -0.92940
C1470       C  0.05247783  0.56189238  0.61129892     1.01750
C1471       C  0.16977481  0.55086112  0.51492930     1.01570
C1472       C  0.08221564  0.95826487  0.61053380     1.01510
C1473       C  0.10652295  0.62790648  0.53994389     0.99370
H1474       H  0.10088823  0.97047246  0.55190882     0.29120
O1475       O  0.07810002  0.97168920  0.54475210    -1.01720
H1476       H  0.04048846  0.56994180  0.55217772     0.29150
O1477       O  0.03921070  0.54609680  0.54491989    -1.04260
O1478       O  0.03540393  0.92140468  0.45801444    -0.81490
O1479       O  0.40339297  0.94621012  0.55737119    -0.81030
O1480       O  0.06380891  0.89728552  0.55714687    -0.79470
O1481       O  0.08945069  0.55472214  0.45857306    -0.82810
O1482       O  0.48976571  0.56721586  0.49844241    -0.80660
O1483       O  0.46765234  0.91374102  0.59949014    -0.79310
O1484       O  0.44465653  0.86292916  0.49796288    -0.80830
O1485       O  0.45452191  0.97404578  0.45823397    -0.82750
O1486       O  0.47070487  0.85485124  0.53809146    -0.79490
O1487       O  0.50304642  0.54037907  0.45580163    -0.82170
O1488       O  0.09702723  0.92268159  0.51680176    -0.77900
O1489       O  0.44627977  0.95952587  0.60117223    -0.77940
O1490       O  0.45479299  0.54008330  0.53794939    -0.77580
O1491       O  0.10782937  0.50673707  0.45585315    -0.81080
O1492       O  0.96861705  0.90294997  0.45544048    -0.80500
O1493       O  0.39543899  0.91309803  0.51683898    -0.78830
Eu1494     Eu  0.07624069  0.96868895  0.49644878     2.39770
Eu1495     Eu  0.47665821  0.99647421  0.56038732     2.39570
Eu1496     Eu  0.01404546  0.92048783  0.56030716     2.38400
Eu1497     Eu  0.04178769  0.54729037  0.49658651     2.39880
Eu1498     Eu  0.46239263  0.93424631  0.49639044     2.39790
O1499       O  0.47775065  0.99728627  0.51232618    -0.93250
O1500       O  0.01296898  0.92104075  0.51227952    -0.92140
C1501       C  0.99990948  0.90302750  0.44625811     1.01920
C1502       C  0.38199713  0.91763086  0.54018753     1.00640
C1503       C  0.09229214  0.90442515  0.54003702     1.00030
C1504       C  0.10790071  0.53796835  0.44685135     1.02050
C1505       C  0.46022217  0.55871917  0.51483115     1.00960
C1506       C  0.44814020  0.92972023  0.61089306     0.99810
C1507       C  0.45320367  0.84204241  0.51447774     0.99870
C1508       C  0.47145858  0.50925626  0.44662351     1.02480
H1509       H  0.44014076  0.90993039  0.55190367     0.29860
O1510       O  0.46394803  0.93267393  0.54469376    -1.05410
H1511       H  0.02655891  0.48340026  0.46132870     0.31910
O1512       O  0.02668347  0.98336426  0.48111870    -1.07970
C1513       C  0.07009680  0.61888207  0.86879151    -0.06520
C1514       C  0.09696015  0.64718902  0.88791703    -0.17650
C1515       C  0.13531145  0.67683990  0.88030447     0.10670
C1516       C  0.14705225  0.67831355  0.85289757    -0.06450
C1517       C  0.12004545  0.65030466  0.83370218    -0.17680
C1518       C  0.08173752  0.62057240  0.84133372     0.10710
S1519       S  0.16716518  0.71195039  0.90631407    -0.32650
S1520       S  0.05003144  0.58532674  0.81535546    -0.32650
H1521       H  0.03073472  0.55231484  0.83302385     0.28720
H1522       H  0.18786181  0.74468583  0.88857299     0.28710
H1523       H  0.08776879  0.64636437  0.90901033     0.19300
H1524       H  0.12927567  0.65109162  0.81262331     0.19310
C1525       C  0.00415032  0.69085315  0.02183006    -0.06520
C1526       C  0.49020554  0.71143022  0.03774073    -0.17650
C1527       C  0.01568945  0.75132759  0.04474492     0.10670
C1528       C  0.05580969  0.77088525  0.03516084    -0.06450
C1529       C  0.06980197  0.75026814  0.01926691    -0.17680
C1530       C  0.04427161  0.71026140  0.01243852     0.10710
S1531       S  0.99445568  0.77513997  0.06539977    -0.32650
S1532       S  0.06389731  0.68626716  0.99060837    -0.32650
H1533       H  0.04019459  0.64752960  0.00124496     0.28720
H1534       H  0.03005560  0.80696220  0.07627060     0.28710
H1535       H  0.45891849  0.69658557  0.04401488     0.19300
H1536       H  0.10090946  0.76525844  0.01260067     0.19310
C1537       C  0.40301815  0.78681100  0.19846461    -0.06520
C1538       C  0.41453831  0.82718206  0.20258694    -0.17650
C1539       C  0.45411924  0.85734852  0.19823397     0.10670
C1540       C  0.48237996  0.84674258  0.18931624    -0.06450
C1541       C  0.47076153  0.80637778  0.18507816    -0.17680
C1542       C  0.43120964  0.77627917  0.18934380     0.10710
S1543       S  0.46693997  0.90852479  0.20467765    -0.32650
S1544       S  0.41831112  0.72513899  0.18275664    -0.32650
H1545       H  0.37744388  0.71093188  0.17679650     0.28720
H1546       H  0.50819683  0.92348373  0.20968939     0.28710
H1547       H  0.39298542  0.83503488  0.21045125     0.19300
H1548       H  0.49229065  0.79844833  0.17727372     0.19310
C1549       C  0.31499945  0.50818223  0.51721214    -0.06520
C1550       C  0.30419522  0.01309702  0.54355601    -0.17650
C1551       C  0.26563370  0.98752047  0.55313857     0.10670
C1552       C  0.23774641  0.95581303  0.53613520    -0.06450
C1553       C  0.24852277  0.95095343  0.50974575    -0.17680
C1554       C  0.28714378  0.47654065  0.50016281     0.10710
S1555       S  0.25380864  0.99740477  0.58700250    -0.32650
S1556       S  0.29927021  0.46656526  0.46638402    -0.32650
H1557       H  0.34005871  0.47999296  0.47215069     0.28720
H1558       H  0.21300114  0.98408411  0.58138510     0.28710
H1559       H  0.32552852  0.03773712  0.55634952     0.19300
H1560       H  0.22722493  0.92624441  0.49698942     0.19310
C1561       C  0.21912242  0.60492920  0.70440938    -0.06520
C1562       C  0.22868130  0.59104479  0.68085485    -0.17650
C1563       C  0.20433480  0.55162646  0.67242419     0.10670
C1564       C  0.16953532  0.52615095  0.68771438    -0.06450
C1565       C  0.16017450  0.53995689  0.71140746    -0.17680
C1566       C  0.18449323  0.57939326  0.71983275     0.10710
S1567       S  0.21893597  0.53566408  0.64192832    -0.32650
S1568       S  0.16979966  0.59543671  0.75030177    -0.32650
H1569       H  0.18620286  0.63569953  0.74244847     0.28720
H1570       H  0.20163203  0.99515468  0.64941183     0.28710
H1571       H  0.25584573  0.61060897  0.66956463     0.19300
H1572       H  0.13294401  0.52044837  0.72265124     0.19310
C1573       C  0.32894369  0.85959754  0.35820962    -0.06520
C1574       C  0.36978187  0.87142830  0.35540410    -0.17650
C1575       C  0.39958211  0.91102862  0.35994728     0.10670
C1576       C  0.38820184  0.93904623  0.36790703    -0.06450
C1577       C  0.34738100  0.92717891  0.37083073    -0.17680
C1578       C  0.31759005  0.88761303  0.36622885     0.10710
S1579       S  0.45138971  0.92420437  0.35494211    -0.32650
S1580       S  0.26577156  0.87457267  0.37090101    -0.32650
H1581       H  0.25089725  0.83368734  0.37618335     0.28720
H1582       H  0.46602616  0.96495702  0.34930937     0.28710
H1583       H  0.37835044  0.85010419  0.34828997     0.19300
H1584       H  0.33879946  0.94853394  0.37785583     0.19310
C1585       C  0.45057105  0.60598608  0.19713435    -0.06520
C1586       C  0.48125814  0.59632060  0.19776672    -0.17650
C1587       C  0.47263050  0.55718877  0.19323205     0.10670
C1588       C  0.43256371  0.52730291  0.18747143    -0.06450
C1589       C  0.40195261  0.53707857  0.18656705    -0.17680
C1590       C  0.41061686  0.57621536  0.19110856     0.10710
S1591       S  0.01372202  0.54711068  0.19551934    -0.32650
S1592       S  0.36970430  0.58649064  0.18884642    -0.32650
H1593       H  0.39364404  0.62744419  0.18266396     0.28720
H1594       H  0.48998208  0.50637030  0.20234368     0.28710
H1595       H  0.01176968  0.61899573  0.20326306     0.19300
H1596       H  0.37140828  0.51439752  0.18114887     0.19310
C1597       C  0.12053260  0.62154956  0.36986326    -0.06520
C1598       C  0.08254224  0.60792281  0.35811815    -0.17650
C1599       C  0.07061567  0.63500263  0.35021853     0.10670
C1600       C  0.09700999  0.67627274  0.35497726    -0.06450
C1601       C  0.13481761  0.68983118  0.36695228    -0.17680
C1602       C  0.14670894  0.66278059  0.37486174     0.10710
S1603       S  0.02199570  0.61504996  0.33373517    -0.32650
S1604       S  0.19511408  0.68269586  0.39162250    -0.32650
H1605       H  0.18363810  0.65118817  0.41034319     0.28720
H1606       H  0.03238319  0.64713350  0.31573558     0.28710
H1607       H  0.06225600  0.57607805  0.35504360     0.19300
H1608       H  0.15517067  0.72167707  0.36997745     0.19310
C1609       C  0.26721744  0.51396769  0.02333947    -0.06520
C1610       C  0.28894937  0.02243036  0.04781681    -0.17650
C1611       C  0.30335002  0.99769548  0.05664591     0.10670
C1612       C  0.29515075  0.96375925  0.04070339    -0.06450
C1613       C  0.27350272  0.95539475  0.01622935    -0.17680
C1614       C  0.25887495  0.97987163  0.00750818     0.10710
S1615       S  0.33210518  0.01102320  0.08819161    -0.32650
S1616       S  0.22968619  0.46594646  0.97611158    -0.32650
H1617       H  0.20495660  0.48167548  0.98348821     0.28720
H1618       H  0.35593189  0.99410396  0.08120544     0.28710
H1619       H  0.29581083  0.54904678  0.05952914     0.19300
H1620       H  0.26662702  0.92879721  0.00447761     0.19310
C1621       C  0.28976625  0.77287452  0.53464991    -0.06520
C1622       C  0.25230945  0.74877165  0.52217205    -0.17650
C1623       C  0.24057315  0.70983175  0.51428013     0.10670
C1624       C  0.26648179  0.69458805  0.51984076    -0.06450
C1625       C  0.30408862  0.71877872  0.53215080    -0.17680
C1626       C  0.31589412  0.75780669  0.53998801     0.10710
S1627       S  0.19270067  0.68156075  0.49681970    -0.32650
S1628       S  0.36411878  0.78637308  0.55701003    -0.32650
H1629       H  0.35321177  0.80794892  0.57481640     0.28720
H1630       H  0.20466844  0.66151095  0.47840230     0.28710
H1631       H  0.23212896  0.76039156  0.51870151     0.19300
H1632       H  0.32421586  0.70710778  0.53564912     0.19310
C1633       C  0.43341705  0.84451248  0.68772627    -0.06520
C1634       C  0.43080101  0.81523128  0.66923340    -0.17650
C1635       C  0.43985060  0.78617673  0.67741503     0.10670
C1636       C  0.45170496  0.78639714  0.70472189    -0.06450
C1637       C  0.45393747  0.81540797  0.72328712    -0.17680
C1638       C  0.44502315  0.84454795  0.71508913     0.10710
S1639       S  0.43497042  0.74959299  0.65228277    -0.32650
S1640       S  0.45025772  0.88126938  0.74021650    -0.32650
H1641       H  0.46297605  0.91322395  0.72169883     0.28720
H1642       H  0.42351193  0.71789619  0.67086270     0.28710
H1643       H  0.42125426  0.81483964  0.64822197     0.19300
H1644       H  0.46352796  0.81580370  0.74428868     0.19310
C1645       C  0.11909103  0.93871053  0.86630022    -0.06520
C1646       C  0.08143108  0.91415566  0.85417523    -0.17650
C1647       C  0.06984428  0.87510889  0.84657166     0.10670
C1648       C  0.09608021  0.86025483  0.85215592    -0.06450
C1649       C  0.13385937  0.88491181  0.86407085    -0.17680
C1650       C  0.14553792  0.92399799  0.87154546     0.10710
S1651       S  0.02180217  0.84624118  0.82942017    -0.32650
S1652       S  0.19397228  0.95307380  0.88819278    -0.32650
H1653       H  0.18226578  0.97289888  0.90698984     0.28720
H1654       H  0.03340673  0.82524556  0.81158753     0.28710
H1655       H  0.06098524  0.92547830  0.85079271     0.19300
H1656       H  0.15423376  0.87353234  0.86757258     0.19310
C1657       C  0.22786793  0.55890977  0.19591739    -0.06520
C1658       C  0.18705448  0.52931755  0.19682558    -0.17650
C1659       C  0.15721818  0.53903339  0.19231952     0.10670
C1660       C  0.16854112  0.57897397  0.18608806    -0.06450
C1661       C  0.20935867  0.60851914  0.18486781    -0.17680
C1662       C  0.23920889  0.59881684  0.18957512     0.10710
S1663       S  0.10534735  0.49948863  0.19518501    -0.32650
S1664       S  0.29109197  0.63835969  0.18737991    -0.32650
H1665       H  0.30669260  0.61322182  0.18109393     0.28720
H1666       H  0.08971346  0.52449619  0.20188153     0.28710
H1667       H  0.17838202  0.49892883  0.20268666     0.19300
H1668       H  0.21797346  0.63893873  0.17914477     0.19310
C1669       C  0.14930809  0.91270501  0.35515661    -0.06520
C1670       C  0.12428712  0.87496315  0.36648585    -0.17650
C1671       C  0.08511738  0.86355346  0.37392755     0.10670
C1672       C  0.07055222  0.89013534  0.36911287    -0.06450
C1673       C  0.09566828  0.92803258  0.35798955    -0.17680
C1674       C  0.13488801  0.93945311  0.35053929     0.10710
S1675       S  0.05574102  0.81525969  0.39000700    -0.32650
S1676       S  0.16441797  0.98784383  0.33461522    -0.32650
H1677       H  0.18467418  0.97643907  0.31595615     0.28720
H1678       H  0.03622132  0.82711283  0.40897869     0.28710
H1679       H  0.13537998  0.85430773  0.36941185     0.19300
H1680       H  0.08452505  0.94863799  0.35502867     0.19310
C1681       C  0.23720883  0.71708340  0.03730831    -0.06520
C1682       C  0.25787200  0.70254454  0.05302186    -0.17650
C1683       C  0.29748600  0.71340942  0.04709735     0.10670
C1684       C  0.31641295  0.73916665  0.02488307    -0.06450
C1685       C  0.29578984  0.75392932  0.00933780    -0.17680
C1686       C  0.25613855  0.74280968  0.01511788     0.10710
S1687       S  0.32122241  0.69245603  0.06804875    -0.32650
S1688       S  0.23217331  0.76333380  0.99399058    -0.32650
H1689       H  0.19244688  0.73185226  0.99711395     0.28720
H1690       H  0.36137836  0.72110713  0.06245768     0.28710
H1691       H  0.24311724  0.68313177  0.07035413     0.19300
H1692       H  0.31048910  0.77340558  0.99201925     0.19310
C1693       C  0.00584077  0.74893073  0.51826734    -0.06520
C1694       C  0.04678529  0.77826821  0.51788892    -0.17650
C1695       C  0.07623520  0.76813020  0.52319656     0.10670
C1696       C  0.06431790  0.72794705  0.52918776    -0.06450
C1697       C  0.02339731  0.69861509  0.52926710    -0.17680
C1698       C  0.49399310  0.70877576  0.52425794     0.10710
S1699       S  0.12833835  0.80749146  0.52215935    -0.32650
S1700       S  0.44192447  0.66945536  0.52627977    -0.32650
H1701       H  0.42649535  0.69456276  0.53320653     0.28720
H1702       H  0.14431713  0.78235571  0.51691885     0.28710
H1703       H  0.05584493  0.80889322  0.51244992     0.19300
H1704       H  0.01422559  0.66801716  0.53488531     0.19310
C1705       C  0.39366748  0.89038381  0.86314430    -0.06520
C1706       C  0.35278895  0.86205500  0.86657441    -0.17650
C1707       C  0.32334568  0.87243325  0.86232400     0.10670
C1708       C  0.33507273  0.91169790  0.85392561    -0.06450
C1709       C  0.37593003  0.93992408  0.85018349    -0.17680
C1710       C  0.40540329  0.92956601  0.85458435     0.10710
S1711       S  0.27151989  0.83466495  0.86829251    -0.32650
S1712       S  0.45731946  0.96733657  0.84907774    -0.32650
H1713       H  0.47138809  0.94050494  0.84425516     0.28720
H1714       H  0.25777882  0.86150233  0.87411676     0.28710
H1715       H  0.34397104  0.83232929  0.87409793     0.19300
H1716       H  0.38472725  0.96969565  0.84277568     0.19310
C1717       C  0.40474736  0.55434769  0.70553584    -0.06520
C1718       C  0.41572163  0.57002241  0.67921134    -0.17650
C1719       C  0.45451769  0.58339835  0.66986972     0.10670
C1720       C  0.48237130  0.57980355  0.68706510    -0.06450
C1721       C  0.47153056  0.56454612  0.71350499    -0.17680
C1722       C  0.43277657  0.55129824  0.72288807     0.10710
S1723       S  0.46673488  0.60534887  0.63608232    -0.32650
S1724       S  0.42078126  0.52989104  0.75684286    -0.32650
H1725       H  0.38024371  0.50179285  0.75099993     0.28720
H1726       H  0.00755188  0.63249601  0.64189246     0.28710
H1727       H  0.39432874  0.57297120  0.66624847     0.19300
H1728       H  0.49286560  0.56146825  0.72644575     0.19310
C1729       C  0.79319887  0.49737839  0.71780026     0.02730
C1730       C  0.83032828  0.01304625  0.70416766    -0.13420
C1731       C  0.86518655  0.04460959  0.71548935     0.00230
C1732       C  0.86345525  0.06394757  0.73878463    -0.11950
C1733       C  0.82815582  0.04866417  0.75375509     0.02720
C1734       C  0.79231797  0.01538860  0.74313558    -0.11370
H1735       H  0.83332806  0.49852593  0.68602267     0.08320
H1736       H  0.89108811  0.08950540  0.74634207     0.05850
H1737       H  0.76486159  0.00262643  0.75499486     0.05690
C1738       C  0.59387015  0.13200486  0.67432327     0.02730
C1739       C  0.55703969  0.11783266  0.68813643    -0.13420
C1740       C  0.52121756  0.08780162  0.67668760     0.00230
C1741       C  0.52147858  0.06805776  0.65313904    -0.11950
C1742       C  0.55650854  0.08161244  0.63813433     0.02720
C1743       C  0.59333202  0.11370314  0.64879557    -0.11370
H1744       H  0.55513535  0.13267235  0.70647642     0.08320
H1745       H  0.99312237  0.04357903  0.64552160     0.05850
H1746       H  0.62061559  0.12543830  0.63681746     0.05690
C1747       C  0.77994763  0.46752410  0.83946961     0.02730
C1748       C  0.80139639  0.45235910  0.85376817    -0.13420
C1749       C  0.80575699  0.42144820  0.84279584     0.00230
C1750       C  0.78777040  0.40387821  0.81808422    -0.11950
C1751       C  0.76624310  0.41758124  0.80306494     0.02720
C1752       C  0.76192234  0.44956677  0.81383178    -0.11370
H1753       H  0.81754980  0.46636283  0.87256480     0.08320
H1754       H  0.79207952  0.38002679  0.81009236     0.05850
H1755       H  0.74637809  0.46138475  0.80190783     0.05690
C1756       C  0.94538018  0.33297751  0.88198572     0.02730
C1757       C  0.92741888  0.34996913  0.86568536    -0.13420
C1758       C  0.92244502  0.38104730  0.87571352     0.00230
C1759       C  0.93706504  0.39744901  0.90136719    -0.11950
C1760       C  0.95535623  0.38212106  0.91814498     0.02720
C1761       C  0.95993313  0.34979170  0.90841390    -0.11370
H1762       H  0.91368303  0.33685015  0.84609022     0.08320
H1763       H  0.93233446  0.42133454  0.90872852     0.05850
H1764       H  0.97275192  0.33664495  0.92178537     0.05690
C1765       C  0.94893527  0.30339990  0.50441413     0.02730
C1766       C  0.97150234  0.28908921  0.51823714    -0.13420
C1767       C  0.97721069  0.25933651  0.50667696     0.00230
C1768       C  0.95971303  0.24228049  0.48174777    -0.11950
C1769       C  0.93617662  0.25436707  0.46753938     0.02720
C1770       C  0.93064425  0.28533158  0.47885722    -0.11370
H1771       H  0.48723190  0.30277811  0.53721831     0.08320
H1772       H  0.96518446  0.21942870  0.47327976     0.05850
H1773       H  0.91376175  0.29618735  0.46748654     0.05690
C1774       C  0.61348280  0.16825210  0.54871765     0.02730
C1775       C  0.59674476  0.18624695  0.53223612    -0.13420
C1776       C  0.59181070  0.21733137  0.54239226     0.00230
C1777       C  0.60523331  0.23262545  0.56845623    -0.11950
C1778       C  0.62286698  0.21672879  0.58531254     0.02720
C1779       C  0.62731761  0.18435914  0.57544241    -0.11370
H1780       H  0.58393864  0.17393468  0.51228978     0.08320
H1781       H  0.60046277  0.25642179  0.57595094     0.05850
H1782       H  0.63953761  0.17070924  0.58888153     0.05690
C1783       C  0.92650379  0.29554592  0.00895729     0.02730
C1784       C  0.89077797  0.27902244  0.02437893    -0.13420
C1785       C  0.85505427  0.24709159  0.01422495     0.00230
C1786       C  0.85430467  0.22936793  0.98938033    -0.11950
C1787       C  0.88832548  0.24500477  0.97302719     0.02720
C1788       C  0.92504677  0.27802003  0.98295168    -0.11370
H1789       H  0.88927122  0.29321004  0.04317645     0.08320
H1790       H  0.82585694  0.20476202  0.98197855     0.05850
H1791       H  0.95139769  0.29122183  0.96996219     0.05690
C1792       C  0.62614539  0.16237051  0.05064808     0.02730
C1793       C  0.62610136  0.18121599  0.07584728    -0.13420
C1794       C  0.66259498  0.21404951  0.08634313     0.00230
C1795       C  0.69782414  0.22777534  0.07136283    -0.11950
C1796       C  0.69822964  0.20888317  0.04738259     0.02720
C1797       C  0.66293730  0.17718273  0.03674914    -0.11370
H1798       H  0.59870312  0.16940885  0.08769687     0.08320
H1799       H  0.72611480  0.25230500  0.07902426     0.05850
H1800       H  0.66533026  0.16219590  0.01864721     0.05690
C1801       C  0.95992848  0.33291887  0.38302410     0.02730
C1802       C  0.95996613  0.35033679  0.40886777    -0.13420
C1803       C  0.99616408  0.38343811  0.41936785     0.00230
C1804       C  0.53109110  0.39877098  0.40392342    -0.11950
C1805       C  0.53146318  0.38118202  0.37935634     0.02720
C1806       C  0.99619000  0.34991494  0.36826286    -0.11370
H1807       H  0.93297694  0.33714313  0.42122515     0.08320
H1808       H  0.55927130  0.42324160  0.41178643     0.05850
H1809       H  0.99850348  0.33638054  0.34938409     0.05690
C1810       C  0.76002985  0.46579329  0.34044777     0.02730
C1811       C  0.72387870  0.45077143  0.35520895    -0.13420
C1812       C  0.68772039  0.42076144  0.34417474     0.00230
C1813       C  0.68674720  0.40249486  0.31958763    -0.11950
C1814       C  0.72146558  0.41560928  0.30426292     0.02720
C1815       C  0.75865338  0.44761426  0.31467082    -0.11370
H1816       H  0.72258604  0.46489655  0.37409662     0.08320
H1817       H  0.65792128  0.37902089  0.31179811     0.05850
H1818       H  0.78559528  0.45936931  0.30232854     0.05690
C1819       C  0.61329883  0.13458034  0.17138192     0.02730
C1820       C  0.63468096  0.11942618  0.18574050    -0.13420
C1821       C  0.63951234  0.08887545  0.17467470     0.00230
C1822       C  0.62197592  0.07155763  0.14983226    -0.11950
C1823       C  0.59979074  0.08461521  0.13500981     0.02720
C1824       C  0.59521464  0.11647846  0.14576866    -0.11370
H1825       H  0.65047612  0.13319803  0.20468557     0.08320
H1826       H  0.62678102  0.04807800  0.14173472     0.05850
H1827       H  0.57933157  0.12799347  0.13391677     0.05690
C1828       C  0.77844412  0.50061157  0.21526850     0.02730
C1829       C  0.79289021  0.01741385  0.24177605    -0.13420
C1830       C  0.78853950  0.04998452  0.25142365     0.00230
C1831       C  0.77032628  0.06527048  0.23458535    -0.11950
C1832       C  0.75611848  0.04912919  0.20881741     0.02720
C1833       C  0.76099908  0.01795979  0.19884733    -0.11370
H1834       H  0.80560681  0.00422599  0.25519598     0.08320
H1835       H  0.76558179  0.08915354  0.24192196     0.05850
H1836       H  0.74764234  0.50511382  0.17911682     0.05690
C1837       C  0.54125947  0.24946908  0.83918162     0.02730
C1838       C  0.55663675  0.28621759  0.85321333    -0.13420
C1839       C  0.58727868  0.32135346  0.84195969     0.00230
C1840       C  0.60553687  0.32076830  0.81782447    -0.11950
C1841       C  0.59167011  0.28549531  0.80296910     0.02720
C1842       C  0.55927995  0.24920783  0.81368482    -0.11370
H1843       H  0.54256730  0.28870021  0.87175554     0.08320
H1844       H  0.62959776  0.34892829  0.80993098     0.05850
H1845       H  0.54722259  0.22177954  0.80184039     0.05690
C1846       C  0.67366927  0.04845282  0.88254831     0.02730
C1847       C  0.65756411  0.01280492  0.86707464    -0.13420
C1848       C  0.62724951  0.47679768  0.87768946     0.00230
C1849       C  0.60972369  0.47552600  0.90261350    -0.11950
C1850       C  0.62406594  0.00968664  0.91869519     0.02720
C1851       C  0.65631834  0.04670357  0.90867858    -0.11370
H1852       H  0.67114991  0.01167508  0.84791196     0.08320
H1853       H  0.58603813  0.44684539  0.91010492     0.05850
H1854       H  0.66890087  0.07318814  0.92156493     0.05690
C1855       C  0.87789025  0.40023536  0.67368034     0.02730
C1856       C  0.89288287  0.37854691  0.68778744    -0.13420
C1857       C  0.92426826  0.37446090  0.67707838     0.00230
C1858       C  0.94300482  0.39371057  0.65309190    -0.11950
C1859       C  0.92843676  0.41391974  0.63768343     0.02720
C1860       C  0.89587902  0.41784627  0.64810419    -0.11370
H1861       H  0.87797300  0.36157547  0.70597911     0.08320
H1862       H  0.96798792  0.39070683  0.64565475     0.05850
H1863       H  0.88359060  0.43269091  0.63592304     0.05690
C1864       C  0.51083321  0.23440754  0.71850424     0.02730
C1865       C  0.49465219  0.25508971  0.70449912    -0.13420
C1866       C  0.96219760  0.25732184  0.71512775     0.00230
C1867       C  0.94377465  0.23734903  0.73895178    -0.11950
C1868       C  0.95953988  0.21814671  0.75431050     0.02720
C1869       C  0.99300709  0.21586736  0.74392274    -0.11370
H1870       H  0.50920758  0.27253622  0.68639166     0.08320
H1871       H  0.91799996  0.23901955  0.74633373     0.05850
H1872       H  0.50598688  0.20156024  0.75597084     0.05690
C1873       C  0.70980487  0.08428898  0.50549581     0.02730
C1874       C  0.72625555  0.12061250  0.52017683    -0.13420
C1875       C  0.75736852  0.15577744  0.50923563     0.00230
C1876       C  0.77504390  0.15548970  0.48473086    -0.11950
C1877       C  0.76009454  0.12061418  0.46926250     0.02720
C1878       C  0.72728590  0.08439677  0.47969495    -0.11370
H1879       H  0.71259864  0.12288402  0.53899069     0.08320
H1880       H  0.79937628  0.18361682  0.47700613     0.05850
H1881       H  0.71446688  0.05734202  0.46739007     0.05690
C1882       C  0.84243742  0.38316958  0.54949428     0.02730
C1883       C  0.82472342  0.38187338  0.57543443    -0.13420
C1884       C  0.79317425  0.34476806  0.58595542     0.00230
C1885       C  0.78011852  0.31009541  0.57060818    -0.11950
C1886       C  0.79797927  0.31103186  0.54590994     0.02720
C1887       C  0.82753069  0.34698915  0.53479506    -0.11370
H1888       H  0.83643807  0.40884416  0.58776029     0.08320
H1889       H  0.75692362  0.28137577  0.57839126     0.05850
H1890       H  0.84132988  0.34562236  0.51579394     0.05690
C1891       C  0.71063497  0.06736460  0.00797134     0.02730
C1892       C  0.72729234  0.04811313  0.02317976    -0.13420
C1893       C  0.75832958  0.04364196  0.01243642     0.00230
C1894       C  0.77650464  0.06157114  0.98807415    -0.11950
C1895       C  0.76089228  0.08009596  0.97196502     0.02720
C1896       C  0.72784348  0.08353681  0.98194339    -0.11370
H1897       H  0.71355320  0.03259778  0.04206987     0.08320
H1898       H  0.80134004  0.05819377  0.98078145     0.05850
H1899       H  0.71454430  0.09674921  0.96908440     0.05690
C1900       C  0.84473578  0.40215827  0.05170102     0.02730
C1901       C  0.83190148  0.42648345  0.03886834    -0.13420
C1902       C  0.80353830  0.43355995  0.05120101     0.00230
C1903       C  0.78440164  0.41395899  0.07488095    -0.11950
C1904       C  0.79554250  0.38932019  0.08837453     0.02720
C1905       C  0.82619302  0.38330061  0.07685535    -0.11370
H1906       H  0.84640629  0.44317088  0.02048126     0.08320
H1907       H  0.76127691  0.41927631  0.08315926     0.05850
H1908       H  0.83644133  0.36559808  0.08776186     0.05690
C1909       C  0.67777285  0.06847253  0.38381622     0.02730
C1910       C  0.66101222  0.08808261  0.36923919    -0.13420
C1911       C  0.62994567  0.09207525  0.38037564     0.00230
C1912       C  0.61252998  0.07417103  0.40490680    -0.11950
C1913       C  0.62766739  0.05426452  0.42017852     0.02720
C1914       C  0.66049362  0.05099581  0.40959206    -0.11370
H1915       H  0.67442538  0.10391516  0.35037861     0.08320
H1916       H  0.58816923  0.07789042  0.41276232     0.05850
H1917       H  0.67349523  0.03683268  0.42176917     0.05690
C1918       C  0.54448608  0.23396808  0.34001748     0.02730
C1919       C  0.55943573  0.21283097  0.35479752    -0.13420
C1920       C  0.58867317  0.20599142  0.34356967     0.00230
C1921       C  0.60620388  0.22242732  0.31873163    -0.11950
C1922       C  0.59320108  0.24415799  0.30350242     0.02720
C1923       C  0.56197391  0.25009114  0.31409274    -0.11370
H1924       H  0.54584134  0.19803701  0.37391553     0.08320
H1925       H  0.62918042  0.21659672  0.31082465     0.05850
H1926       H  0.55025897  0.26536073  0.30180073     0.05690
C1927       C  0.50704343  0.21583015  0.21440422     0.02730
C1928       C  0.99025471  0.18029958  0.19874413    -0.13420
C1929       C  0.95973140  0.14424664  0.20929018     0.00230
C1930       C  0.94342927  0.14307268  0.23479532    -0.11950
C1931       C  0.95803561  0.17737330  0.25084739     0.02720
C1932       C  0.99011543  0.21423892  0.24064023    -0.11370
H1933       H  0.50326731  0.17934793  0.17928361     0.08320
H1934       H  0.92006771  0.11447243  0.24259892     0.05850
H1935       H  0.00301189  0.24074482  0.25351840     0.05690
C1936       C  0.87546609  0.41655546  0.17294618     0.02730
C1937       C  0.89200525  0.45299032  0.18754235    -0.13420
C1938       C  0.92296659  0.48825608  0.17648061     0.00230
C1939       C  0.93968284  0.48771063  0.15153274    -0.11950
C1940       C  0.92519024  0.45244353  0.13649401     0.02720
C1941       C  0.89283023  0.41633333  0.14722659    -0.11370
H1942       H  0.87866339  0.45516570  0.20653379     0.08320
H1943       H  0.96337585  0.01579938  0.14331420     0.05850
H1944       H  0.88013404  0.38907249  0.13513895     0.05690
C1945       C  0.77523619  0.24977665  0.34076183     0.02730
C1946       C  0.79475179  0.28535951  0.35637967    -0.13420
C1947       C  0.79982156  0.32125163  0.34605190     0.00230
C1948       C  0.78393296  0.32236254  0.32076001    -0.11950
C1949       C  0.76402844  0.28814600  0.30460626     0.02720
C1950       C  0.75934765  0.25133737  0.31464273    -0.11370
H1951       H  0.80938212  0.28643533  0.37566905     0.08320
H1952       H  0.78879237  0.35089354  0.31319738     0.05850
H1953       H  0.74534363  0.22485842  0.30173837     0.05690
C1954       C  0.94120121  0.04926626  0.38361881     0.02730
C1955       C  0.92139390  0.01312521  0.36867134    -0.13420
C1956       C  0.91742858  0.47790792  0.37933833     0.00230
C1957       C  0.93469257  0.47804231  0.40430686    -0.11950
C1958       C  0.95493441  0.01288158  0.41989144     0.02720
C1959       C  0.95858954  0.04908507  0.40948472    -0.11370
H1960       H  0.90584111  0.01109773  0.34961682     0.08320
H1961       H  0.93066339  0.44992739  0.41209818     0.05850
H1962       H  0.97300078  0.07607376  0.42186951     0.05690
C1963       C  0.77446665  0.21545109  0.71818161     0.02730
C1964       C  0.75340864  0.17888383  0.70383002    -0.13420
C1965       C  0.74873217  0.14379365  0.71514042     0.00230
C1966       C  0.76766354  0.14437125  0.73933163    -0.11950
C1967       C  0.78839559  0.17933382  0.75454628     0.02720
C1968       C  0.79228552  0.21555676  0.74395067    -0.11370
H1969       H  0.73709120  0.17647685  0.68507047     0.08320
H1970       H  0.76404142  0.11632968  0.74697459     0.05850
H1971       H  0.80728845  0.24278161  0.75606641     0.05690
C1972       C  0.60968737  0.41559153  0.67354602     0.02730
C1973       C  0.63220110  0.45197950  0.68791913    -0.13420
C1974       C  0.63921770  0.48789758  0.67649515     0.00230
C1975       C  0.62109931  0.48855732  0.65217691    -0.11950
C1976       C  0.59861137  0.45382297  0.63705881     0.02720
C1977       C  0.59269258  0.41672499  0.64768932    -0.11370
H1978       H  0.64789475  0.45343585  0.70679155     0.08320
H1979       H  0.62643651  0.01720567  0.64449116     0.05850
H1980       H  0.57663357  0.38961619  0.63554615     0.05690
C1981       C  0.92655489  0.06474362  0.50509268     0.02730
C1982       C  0.88940715  0.04261060  0.51853762    -0.13420
C1983       C  0.85423994  0.03826269  0.50702337     0.00230
C1984       C  0.85550599  0.05900025  0.48369252    -0.11950
C1985       C  0.89100326  0.08032537  0.46905885     0.02720
C1986       C  0.92720034  0.08370512  0.47984192    -0.11370
H1987       H  0.88669035  0.02532052  0.53671552     0.08320
H1988       H  0.82754090  0.05606221  0.47603358     0.05850
H1989       H  0.95482230  0.09920647  0.46822375     0.05690
C1990       C  0.62636866  0.39861999  0.54936804     0.02730
C1991       C  0.66314012  0.42045737  0.53537818    -0.13420
C1992       C  0.69878494  0.42544366  0.54660997     0.00230
C1993       C  0.69834369  0.40547642  0.57018033    -0.11950
C1994       C  0.66342070  0.38478094  0.58540233     0.02720
C1995       C  0.62678067  0.38084921  0.57492634    -0.11370
H1996       H  0.66521979  0.43717105  0.51702317     0.08320
H1997       H  0.72656100  0.40880916  0.57764393     0.05850
H1998       H  0.59958841  0.36586370  0.58703261     0.05690
C1999       C  0.79267778  0.23114779  0.21467591     0.02730
C2000       C  0.82850064  0.25125366  0.19945710    -0.13420
C2001       C  0.86472574  0.25693784  0.21006073     0.00230
C2002       C  0.86600636  0.24082605  0.23512434    -0.11950
C2003       C  0.83153427  0.22029421  0.25091154     0.02720
C2004       C  0.79435175  0.21517690  0.24064954    -0.11370
H2005       H  0.82950552  0.26600046  0.18034167     0.08320
H2006       H  0.89484373  0.24610253  0.24284316     0.05850
H2007       H  0.76766179  0.20078050  0.25328458     0.05690
C2008       C  0.59248659  0.39840270  0.17355939     0.02730
C2009       C  0.55666423  0.37997821  0.18883819    -0.13420
C2010       C  0.52125636  0.37640883  0.17832216     0.00230
C2011       C  0.52109674  0.39324946  0.15334173    -0.11950
C2012       C  0.55568543  0.41202929  0.13743749     0.02720
C2013       C  0.59195298  0.41506348  0.14762172    -0.11370
H2014       H  0.55480328  0.36472701  0.20788624     0.08320
H2015       H  0.49284242  0.38953800  0.14562474     0.05850
H2016       H  0.61862221  0.42824534  0.13494277     0.05690
C2017       C  0.94215171  0.08045928  0.00723581     0.02730
C2018       C  0.96505993  0.11665733  0.02175039    -0.13420
C2019       C  0.97422080  0.15299566  0.00993910     0.00230
C2020       C  0.95783415  0.15443902  0.98503553    -0.11950
C2021       C  0.93323058  0.11960853  0.97044432     0.02720
C2022       C  0.92564479  0.08208804  0.98134395    -0.11370
H2023       H  0.97961175  0.11755383  0.04104034     0.08320
H2024       H  0.96509143  0.18348160  0.97693199     0.05850
H2025       H  0.90857084  0.05492327  0.96940124     0.05690
C2026       C  0.60811491  0.38103612  0.04986458     0.02730
C2027       C  0.58851209  0.34481593  0.03495678    -0.13420
C2028       C  0.58517702  0.30995493  0.04575393     0.00230
C2029       C  0.60345702  0.31051912  0.07029205    -0.11950
C2030       C  0.62261159  0.34519530  0.08604016     0.02720
C2031       C  0.62554419  0.38109521  0.07574355    -0.11370
H2032       H  0.57228407  0.34234496  0.01614259     0.08320
H2033       H  0.60025866  0.28262864  0.07789587     0.05850
H2034       H  0.63930208  0.40796485  0.08826446     0.05690
C2035       C  0.75870075  0.23018943  0.83977991     0.02730
C2036       C  0.72167665  0.20956158  0.85366250    -0.13420
C2037       C  0.68706851  0.20787958  0.84305396     0.00230
C2038       C  0.68905941  0.22852553  0.81943609    -0.11950
C2039       C  0.72406329  0.24725774  0.80404841     0.02720
C2040       C  0.75965710  0.24902671  0.81444441    -0.11370
H2041       H  0.71854243  0.19163311  0.87155437     0.08320
H2042       H  0.66175408  0.22732974  0.81202350     0.05850
H2043       H  0.78694551  0.26302326  0.80239463     0.05690
C2044       C  0.95843042  0.06313213  0.88264418     0.02730
C2045       C  0.99512238  0.08474795  0.86845462    -0.13420
C2046       C  0.53066989  0.08826611  0.87889924     0.00230
C2047       C  0.53002171  0.06826298  0.90256610    -0.11950
C2048       C  0.99539009  0.04856925  0.91817747     0.02720
C2049       C  0.95889334  0.04517477  0.90803867    -0.11370
H2050       H  0.99722710  0.10224155  0.85053808     0.08320
H2051       H  0.55797676  0.07076709  0.90983917     0.05850
H2052       H  0.93189998  0.03063679  0.92037453     0.05690
O2053       O  0.86681020  0.08637578  0.79244348    -0.80530
O2054       O  0.73526320  0.11081497  0.89108682    -0.82080
O2055       O  0.77699711  0.02776052  0.83248112    -0.79100
O2056       O  0.78798330  0.14035601  0.79276361    -0.77490
O2057       O  0.83648045  0.20668021  0.79020700    -0.79280
O2058       O  0.80273397  0.01964502  0.87274533    -0.80210
O2059       O  0.72744036  0.07795031  0.85048507    -0.81540
O2060       O  0.80008357  0.06797661  0.78955907    -0.81830
Eu2061     Eu  0.79455287  0.09913448  0.83064364     2.39200
O2062       O  0.80982251  0.16211819  0.84652536    -0.89340
O2063       O  0.84497929  0.08578718  0.84665296    -0.92940
C2064       C  0.83145698  0.06813373  0.78052677     1.01750
C2065       C  0.71382793  0.08248478  0.87372897     1.01570
C2066       C  0.78516975  0.00674251  0.84915942     1.01510
C2067       C  0.80491117  0.17560864  0.78113676     0.99370
H2068       H  0.77210239  0.07480522  0.88609912     0.29120
O2069       O  0.79602189  0.09750320  0.87895265    -1.01720
H2070       H  0.85863713  0.14818782  0.79548673     0.29150
O2071       O  0.85874775  0.14812258  0.81527514    -1.04260
O2072       O  0.84801371  0.20686292  0.93443131    -0.81490
O2073       O  0.98035861  0.18611749  0.83244936    -0.81030
O2074       O  0.79990811  0.07901966  0.93391528    -0.79470
O2075       O  0.82132942  0.23134481  0.83289621    -0.82810
O2076       O  0.92132397  0.21854159  0.79273781    -0.80660
O2077       O  0.89619569  0.06234336  0.89105187    -0.79310
O2078       O  0.93192550  0.15967565  0.93313582    -0.80830
O2079       O  0.94580346  0.27170178  0.89103630    -0.82750
O2080       O  0.88507252  0.09273190  0.93494960    -0.79490
O2081       O  0.92037874  0.27881174  0.85032724    -0.82170
O2082       O  0.77791990  0.12437432  0.93501731    -0.77900
O2083       O  0.92884836  0.08726327  0.85046824    -0.77940
O2084       O  0.93981139  0.17065260  0.78999157    -0.77580
O2085       O  0.78636087  0.20466639  0.87245025    -0.81080
O2086       O  0.91557739  0.22818529  0.93576699    -0.80500
O2087       O  0.98854417  0.22123562  0.87204353    -0.78830
Eu2088     Eu  0.80859794  0.16127672  0.89454356     2.39770
Eu2089     Eu  0.90814405  0.13340967  0.83071267     2.39570
Eu2090     Eu  0.84623911  0.08543369  0.89469909     2.38400
Eu2091     Eu  0.87394925  0.21197873  0.83087566     2.39880
Eu2092     Eu  0.92301786  0.19888738  0.89465363     2.39790
O2093       O  0.92223395  0.19718786  0.84665033    -0.93250
O2094       O  0.85942851  0.14871535  0.90958315    -0.92140
C2095       C  0.88382149  0.22605699  0.94580393     1.01920
C2096       C  0.00159735  0.21578009  0.84885500     1.00640
C2097       C  0.78015480  0.09497047  0.94502544     1.00030
C2098       C  0.79186839  0.22321039  0.84931421     1.02050
C2099       C  0.93978756  0.20180103  0.78097199     1.00960
C2100       C  0.92439630  0.06922217  0.87371809     0.99810
C2101       C  0.91599844  0.12413265  0.94432108     0.99870
C2102       C  0.93877760  0.29271387  0.87353162     1.02480
H2103       H  0.93294526  0.13530484  0.88597498     0.29860
O2104       O  0.91012653  0.13659317  0.87896266    -1.05410
H2105       H  0.87262103  0.23499590  0.88640226     0.31910
O2106       O  0.87123808  0.21107977  0.87917684    -1.07970
O2107       O  0.95361079  0.42069273  0.95635826    -0.80530
O2108       O  0.60915922  0.44319342  0.05744364    -0.82080
O2109       O  0.58452472  0.46942078  0.95663902    -0.79100
O2110       O  0.98818978  0.35720910  0.00005272    -0.77490
O2111       O  0.95542990  0.35008716  0.04053681    -0.79280
O2112       O  0.60596179  0.03659561  0.95546286    -0.80210
O2113       O  0.58233541  0.40864926  0.01752572    -0.81540
O2114       O  0.99986956  0.39966402  0.95538771    -0.81830
Eu2115     Eu  0.53798641  0.43013866  0.99598333     2.39200
O2116       O  0.53930476  0.43174416  0.04408288    -0.89340
O2117       O  0.52473680  0.48007247  0.98092370    -0.92940
C2118       C  0.96999245  0.40139667  0.94526950     1.01750
C2119       C  0.60105886  0.41405707  0.04070401     1.01570
C2120       C  0.60418631  0.50506880  0.94552587     1.01510
C2121       C  0.96009455  0.33610957  0.01748668     0.99370
H2122       H  0.61207632  0.49390259  0.00433720     0.29120
O2123       O  0.58806819  0.49248644  0.01155167    -1.01720
H2124       H  0.95138552  0.39352784  0.00459439     0.29150
O2125       O  0.97410508  0.41758621  0.01175925    -1.04260
O2126       O  0.59847062  0.04451524  0.09720472    -0.81490
O2127       O  0.93868470  0.01717983  0.99915976    -0.81030
O2128       O  0.64863347  0.06717030  0.99949554    -0.79470
O2129       O  0.01623372  0.41012526  0.09881399    -0.82810
O2130       O  0.90441804  0.39792572  0.05818060    -0.80660
O2131       O  0.53529711  0.04952034  0.95650041    -0.79310
O2132       O  0.56281882  0.10177771  0.05772556    -0.80830
O2133       O  0.96350415  0.99061788  0.09806251    -0.82750
O2134       O  0.59730877  0.10911364  0.01805736    -0.79490
O2135       O  0.94497377  0.42429754  0.10085039    -0.82170
O2136       O  0.65656463  0.04160849  0.03978726    -0.77900
O2137       O  0.96777056  0.00349014  0.95491605    -0.77940
O2138       O  0.89568941  0.42305842  0.01792863    -0.77580
O2139       O  0.58305092  0.45825376  0.10099091    -0.81080
O2140       O  0.55014201  0.06260653  0.10006064    -0.80500
O2141       O  0.96354419  0.04948382  0.04006862    -0.78830
Eu2142     Eu  0.58974694  0.49556048  0.05983091     2.39770
Eu2143     Eu  0.96126148  0.46695656  0.99588625     2.39570
Eu2144     Eu  0.57529669  0.04346990  0.99593072     2.38400
Eu2145     Eu  0.97629626  0.41701989  0.06016233     2.39880
Eu2146     Eu  0.51068947  0.02983845  0.05978656     2.39790
O2147       O  0.96243864  0.46670972  0.04396773    -0.93250
O2148       O  0.57443214  0.04325678  0.04390728    -0.92140
C2149       C  0.58205399  0.06334477  0.10881168     1.01920
C2150       C  0.94595559  0.04543963  0.01654814     1.00640
C2151       C  0.67015471  0.06028818  0.01674601     1.00030
C2152       C  0.55177134  0.42733583  0.11042736     1.02050
C2153       C  0.88317524  0.40595639  0.04155005     1.00960
C2154       C  0.49954308  0.03320599  0.94508039     0.99810
C2155       C  0.59223484  0.12257947  0.04120248     0.99870
C2156       C  0.94502669  0.45558438  0.10984597     1.02480
H2157       H  0.51179349  0.05361530  0.00422483     0.29860
O2158       O  0.51294486  0.03099127  0.01146149    -1.05410
H2159       H  0.52613743  0.48150826  0.09524361     0.31910
O2160       O  0.52583395  0.48110104  0.07545297    -1.07970
O2161       O  0.93410262  0.21405961  0.42968224    -0.80530
O2162       O  0.77397374  0.18757801  0.33206178    -0.82080
O2163       O  0.89744217  0.27159246  0.39023370    -0.79100
O2164       O  0.79852018  0.15956896  0.43093775    -0.77490
O2165       O  0.77985376  0.09314906  0.43329797    -0.79280
O2166       O  0.93287789  0.27871166  0.35104297    -0.80210
O2167       O  0.79976368  0.22036989  0.37270964    -0.81540
O2168       O  0.88589307  0.23221480  0.43288394    -0.81830
Eu2169     Eu  0.84592761  0.19956316  0.39263320     2.39200
O2170       O  0.79746091  0.13664046  0.37655047    -0.89340
O2171       O  0.90966188  0.21298699  0.37651968    -0.92940
C2172       C  0.91790390  0.23294402  0.44144549     1.01750
C2173       C  0.78134530  0.21586504  0.34947163     1.01570
C2174       C  0.92699181  0.29244665  0.37381463     1.01510
C2175       C  0.77995992  0.12431382  0.44253172     0.99370
H2176       H  0.84721092  0.22341907  0.33705690     0.29120
O2177       O  0.84838635  0.20078414  0.34424325    -1.01720
H2178       H  0.86121347  0.15095064  0.42788106     0.29150
O2179       O  0.86085870  0.15063813  0.40808899    -1.04260
O2180       O  0.78772883  0.08979375  0.28928178    -0.81490
O2181       O  0.94370944  0.11233620  0.39063786    -0.81030
O2182       O  0.87180853  0.22107369  0.28908217    -0.79470
O2183       O  0.73904853  0.06690338  0.39069572    -0.82810
O2184       O  0.85216760  0.08011230  0.43062088    -0.80660
O2185       O  0.98375726  0.23615513  0.33183149    -0.79310
O2186       O  0.91899415  0.13765533  0.28907510    -0.80830
O2187       O  0.82257958  0.02673423  0.33203387    -0.82750
O2188       O  0.94046823  0.20483254  0.28773978    -0.79490
O2189       O  0.79000811  0.01969988  0.37256951    -0.82170
O2190       O  0.80427273  0.17501118  0.28763367    -0.77540
O2191       O  0.99140817  0.21081386  0.37230780    -0.77940
O2192       O  0.91887363  0.12822942  0.43348696    -0.77580
O2193       O  0.73106079  0.09435944  0.35134117    -0.81080
O2194       O  0.83369861  0.06836055  0.28835971    -0.80500
O2195       O  0.91580937  0.07717340  0.35111146    -0.78830
Eu2196     Eu  0.79639365  0.13722916  0.32843561     2.39770
Eu2197     Eu  0.92470347  0.16503783  0.39233032     2.39570
Eu2198     Eu  0.91067272  0.21319313  0.32844416     2.38400
Eu2199     Eu  0.81118234  0.08669752  0.39251765     2.39880
Eu2200     Eu  0.87262352  0.09954210  0.32856855     2.39790
O2201       O  0.87409676  0.10125341  0.37659273    -0.93250
O2202       O  0.85975890  0.14985800  0.31354941    -0.92140
C2203       C  0.80369427  0.06995637  0.27834557     1.01920
C2204       C  0.93478902  0.08267354  0.37421668     1.00640
C2205       C  0.83600117  0.20488483  0.27779008     1.00030
C2206       C  0.71786658  0.07542128  0.37434605     1.02050
C2207       C  0.88755383  0.09698778  0.44248293     1.00960
C2208       C  0.00494652  0.22884383  0.34908082     0.99810
C2209       C  0.93853978  0.17316352  0.27783067     0.99870
C2210       C  0.79433395  0.00576249  0.34937120     1.02480
H2211       H  0.94685767  0.16293023  0.33677238     0.29860
O2212       O  0.92302034  0.16184734  0.34401785    -1.05410
H2213       H  0.78608240  0.06358418  0.33712405     0.31910
O2214       O  0.80892754  0.08759887  0.34421092    -1.07970
O2215       O  0.73035830  0.43651290  0.72463177    -0.80530
O2216       O  0.75316655  0.30483678  0.62383040    -0.82080
O2217       O  0.81665766  0.40183310  0.66594816    -0.79100
O2218       O  0.70323829  0.38511895  0.62362656    -0.77490
O2219       O  0.63572001  0.33910506  0.62192250    -0.79280
O2220       O  0.82486909  0.37669341  0.70635208    -0.80210
O2221       O  0.77413454  0.37187200  0.62227624    -0.81540
O2222       O  0.76541611  0.44421451  0.68514862    -0.81830
Eu2223     Eu  0.74337436  0.37871055  0.66284066     2.39200
O2224       O  0.69270431  0.31533629  0.64784477    -0.89340
O2225       O  0.74236199  0.37855957  0.71091524    -0.92940
C2226       C  0.75986035  0.45749625  0.70820937     1.01750
C2227       C  0.77276219  0.34038647  0.61258177     1.01570
C2228       C  0.83817182  0.39469901  0.68304225     1.01510
C2229       C  0.66749131  0.36898044  0.61219744     0.99370
H2230       H  0.78001968  0.32886945  0.67129856     0.29120
O2231       O  0.75617239  0.32777303  0.67851657    -1.01720
H2232       H  0.67986792  0.38858866  0.67128357     0.29150
O2233       O  0.68095572  0.36592483  0.67849179    -1.04260
O2234       O  0.65658059  0.19271147  0.66638524    -0.81490
O2235       O  0.63057022  0.32418909  0.76476845    -0.81030
O2236       O  0.77704779  0.27845644  0.72507270    -0.79470
O2237       O  0.62109427  0.25530889  0.62353316    -0.82810
O2238       O  0.60669435  0.35247013  0.66575912    -0.80660
O2239       O  0.76611709  0.37895640  0.76472140    -0.79310
O2240       O  0.68523761  0.24601114  0.76532057    -0.80830
O2241       O  0.57206908  0.23249530  0.72514111    -0.82750
O2242       O  0.75203731  0.29408193  0.76790902    -0.79490
O2243       O  0.56368181  0.25941734  0.68566381    -0.82170
O2244       O  0.74991083  0.24363878  0.68529822    -0.77900
O2245       O  0.71737243  0.39651560  0.76756813    -0.77940
O2246       O  0.63199905  0.38525920  0.70647449    -0.77580
O2247       O  0.66764078  0.23461845  0.62247580    -0.81080
O2248       O  0.62378607  0.18518783  0.70691625    -0.80500
O2249       O  0.61246128  0.25796796  0.76756186    -0.78830
Eu2250     Eu  0.70620145  0.26552301  0.66292488     2.39770
Eu2251     Eu  0.67833953  0.36467926  0.72681255     2.39570
Eu2252     Eu  0.75798397  0.33103795  0.72678365     2.38400
Eu2253     Eu  0.62910632  0.30214919  0.66279884     2.39880
Eu2254     Eu  0.64429621  0.25197858  0.72687805     2.39790
O2255       O  0.63016193  0.30160124  0.71087634    -0.93250
O2256       O  0.70749600  0.26716681  0.71098929    -0.92140
C2257       C  0.62824307  0.17158674  0.68361928     1.01920
C2258       C  0.61210670  0.28903953  0.77650169     1.00640
C2259       C  0.76849595  0.24899576  0.70856086     1.00030
C2260       C  0.63751480  0.23601968  0.61246043     1.02050
C2261       C  0.61413690  0.38094194  0.68298744     1.00960
C2262       C  0.74919180  0.39716039  0.77649660     0.99810
C2263       C  0.72067039  0.26309263  0.77712981     0.99870
C2264       C  0.55073067  0.24089982  0.70882641     1.02480
H2265       H  0.69392209  0.31635074  0.76202715     0.29860
O2266       O  0.69376789  0.31608836  0.74223700    -1.05410
H2267       H  0.61944875  0.22885843  0.67138032     0.31910
O2268       O  0.64218724  0.25289094  0.67854201    -1.07970
O2269       O  0.70176975  0.25364256  0.12461619    -0.80530
O2270       O  0.56869784  0.27793191  0.22306148    -0.82080
O2271       O  0.61000634  0.19464935  0.16450266    -0.79100
O2272       O  0.62140011  0.30631463  0.12446690    -0.77490
O2273       O  0.66940618  0.37288207  0.12247871    -0.79280
O2274       O  0.63701565  0.18713490  0.20437520    -0.80210
O2275       O  0.56120589  0.24482200  0.18258465    -0.81540
O2276       O  0.63491188  0.23467540  0.12185143    -0.81830
Eu2277     Eu  0.62839711  0.26616154  0.16271882     2.39200
O2278       O  0.64289448  0.32891914  0.17893041    -0.89340
O2279       O  0.67900491  0.25314219  0.17878940    -0.92940
C2280       C  0.66630970  0.23478200  0.11283190     1.01750
C2281       C  0.54740000  0.24957842  0.20568362     1.01570
C2282       C  0.61868233  0.17387946  0.18104080     1.01510
C2283       C  0.63835754  0.34161314  0.11298529     0.99370
H2284       H  0.60592009  0.24189890  0.21810151     0.29120
O2285       O  0.62991078  0.26461444  0.21105015    -1.01720
H2286       H  0.69262599  0.31589809  0.12783863     0.29150
O2287       O  0.69248265  0.31575961  0.14762813    -1.04260
O2288       O  0.68125696  0.37507049  0.26633408    -0.81490
O2289       O  0.81425456  0.35376672  0.16568169    -0.81030
O2290       O  0.63306171  0.24431678  0.26567096    -0.79470
O2291       O  0.65474191  0.39912703  0.16586903    -0.82810
O2292       O  0.75547198  0.38753082  0.12618717    -0.80660
O2293       O  0.73027779  0.22986862  0.22327575    -0.79310
O2294       O  0.76452752  0.32800917  0.26659941    -0.80830
O2295       O  0.77900990  0.43927855  0.22396958    -0.82750
O2296       O  0.71852433  0.26075872  0.26763969    -0.79490
O2297       O  0.75291189  0.44629076  0.18352950    -0.82170
O2298       O  0.61169865  0.29011047  0.26738059    -0.77900
O2299       O  0.76284803  0.25526658  0.18275571    -0.77940
O2300       O  0.77373006  0.33958790  0.12269972    -0.77580
O2301       O  0.61996908  0.37175839  0.20536628    -0.81080
O2302       O  0.74887591  0.39689474  0.26796478    -0.80500
O2303       O  0.82205983  0.38881105  0.20527159    -0.78830
Eu2304     Eu  0.64196469  0.32802602  0.22701745     2.39770
Eu2305     Eu  0.74203600  0.30131654  0.16308521     2.39570
Eu2306     Eu  0.68024305  0.25270563  0.22682657     2.38400
Eu2307     Eu  0.70693564  0.37935044  0.16356194     2.39880
Eu2308     Eu  0.75629614  0.36644039  0.22737011     2.39790
O2309       O  0.75551404  0.36485311  0.17931142    -0.93250
O2310       O  0.69287858  0.31569279  0.24212538    -0.92140
C2311       C  0.71706913  0.39507019  0.27764161     1.01920
C2312       C  0.83538647  0.38325265  0.18225497     1.00640
C2313       C  0.61336219  0.26013466  0.27694941     1.00030
C2314       C  0.62549592  0.39088642  0.18250038     1.02050
C2315       C  0.77420788  0.37125514  0.11427387     1.00960
C2316       C  0.75847919  0.23702035  0.20590037     0.99810
C2317       C  0.74848353  0.29242418  0.27768196     0.99870
C2318       C  0.77169214  0.46027780  0.20664658     1.02480
H2319       H  0.76680898  0.30309470  0.21859634     0.29860
O2320       O  0.74403899  0.30435312  0.21142935    -1.05410
H2321       H  0.70553222  0.40200573  0.21896501     0.31910
O2322       O  0.70434132  0.37816833  0.21176996    -1.07970
O2323       O  0.51680857  0.04262129  0.59974802    -0.80530
O2324       O  0.64849202  0.02135969  0.49840693    -0.82080
O2325       O  0.59832503  0.99385233  0.59932383    -0.79100
O2326       O  0.61368142  0.10672746  0.55721639    -0.77490
O2327       O  0.58781395  0.11413001  0.51677044    -0.79280
O2328       O  0.55171803  0.42681660  0.60086417    -0.80210
O2329       O  0.65663380  0.05627068  0.53809731    -0.81540
O2330       O  0.58426088  0.06369786  0.60161556    -0.81830
Eu2331     Eu  0.59095280  0.03388538  0.56053328     2.39200
O2332       O  0.59009998  0.03240559  0.51246008    -0.89340
O2333       O  0.52734540  0.48373035  0.57539251    -0.92940
C2334       C  0.55247782  0.06189238  0.61129892     1.01750
C2335       C  0.66977481  0.05086112  0.51492930     1.01570
C2336       C  0.58221563  0.45826488  0.61053380     1.01510
C2337       C  0.60652295  0.12790648  0.53994389     0.99370
H2338       H  0.60088823  0.47047246  0.55190882     0.29120
O2339       O  0.57810002  0.47168920  0.54475209    -1.01720
H2340       H  0.54048846  0.06994180  0.55217772     0.29150
O2341       O  0.53921069  0.04609680  0.54491990    -1.04260
O2342       O  0.53540393  0.42140469  0.45801443    -0.81490
O2343       O  0.90339297  0.44621012  0.55737119    -0.81030
O2344       O  0.56380891  0.39728552  0.55714686    -0.79470
O2345       O  0.58945068  0.05472214  0.45857306    -0.82810
O2346       O  0.98976571  0.06721586  0.49844241    -0.80660
O2347       O  0.96765234  0.41374102  0.59949014    -0.79310
O2348       O  0.94465653  0.36292916  0.49796288    -0.80830
O2349       O  0.95452191  0.47404577  0.45823397    -0.82750
O2350       O  0.97070487  0.35485124  0.53809146    -0.79490
O2351       O  0.00304642  0.04037906  0.45580163    -0.82170
O2352       O  0.59702723  0.42268160  0.51680176    -0.77900
O2353       O  0.94627977  0.45952587  0.60117223    -0.77940
O2354       O  0.95479300  0.04008330  0.53794940    -0.77580
O2355       O  0.60782937  0.00673707  0.45585315    -0.81080
O2356       O  0.46861705  0.40294998  0.45544048    -0.80500
O2357       O  0.89543899  0.41309803  0.51683898    -0.78830
Eu2358     Eu  0.57624069  0.46868895  0.49644877     2.39770
Eu2359     Eu  0.97665822  0.49647421  0.56038732     2.39570
Eu2360     Eu  0.51404546  0.42048783  0.56030715     2.38400
Eu2361     Eu  0.54178769  0.04729038  0.49658651     2.39880
Eu2362     Eu  0.96239263  0.43424631  0.49639044     2.39790
O2363       O  0.97775065  0.49728627  0.51232618    -0.93250
O2364       O  0.51296898  0.42104076  0.51227951    -0.92140
C2365       C  0.49990949  0.40302750  0.44625810     1.01920
C2366       C  0.88199713  0.41763087  0.54018753     1.00640
C2367       C  0.59229214  0.40442515  0.54003701     1.00030
C2368       C  0.60790070  0.03796835  0.44685136     1.02050
C2369       C  0.96022217  0.05871918  0.51483116     1.00960
C2370       C  0.94814019  0.42972023  0.61089305     0.99810
C2371       C  0.95320367  0.34204241  0.51447774     0.99870
C2372       C  0.97145858  0.00925625  0.44662351     1.02480
H2373       H  0.94014076  0.40993039  0.55190367     0.29860
O2374       O  0.96394803  0.43267393  0.54469376    -1.05410
H2375       H  0.52655891  0.98340027  0.46132870     0.31910
O2376       O  0.52668347  0.48336426  0.48111870    -1.07970
C2377       C  0.57009678  0.11888201  0.86879149    -0.06520
C2378       C  0.59696013  0.14718896  0.88791701    -0.17650
C2379       C  0.63531142  0.17683985  0.88030446     0.10670
C2380       C  0.64705222  0.17831351  0.85289755    -0.06450
C2381       C  0.62004542  0.15030463  0.83370216    -0.17680
C2382       C  0.58173749  0.12057236  0.84133369     0.10710
S2383       S  0.66716515  0.21195033  0.90631405    -0.32650
S2384       S  0.55003141  0.08532670  0.81535543    -0.32650
H2385       H  0.53073469  0.05231480  0.83302382     0.28720
H2386       H  0.68786177  0.24468578  0.88857298     0.28710
H2387       H  0.58776878  0.14636431  0.90901031     0.19300
H2388       H  0.62927564  0.15109160  0.81262328     0.19310
C2389       C  0.50415036  0.19085312  0.02183005    -0.06520
C2390       C  0.99020550  0.21143032  0.03774065    -0.17650
C2391       C  0.51568950  0.25132752  0.04474499     0.10670
C2392       C  0.55580969  0.27088523  0.03516083    -0.06450
C2393       C  0.56980196  0.25026818  0.01926683    -0.17680
C2394       C  0.54427162  0.21026143  0.01243845     0.10710
S2395       S  0.49445571  0.27513976  0.06539998    -0.32650
S2396       S  0.56389731  0.18626722  0.99060824    -0.32650
H2397       H  0.54019462  0.14752965  0.00124484     0.28720
H2398       H  0.53005563  0.30696286  0.07627009     0.28710
H2399       H  0.95891842  0.19658574  0.04401474     0.19300
H2400       H  0.60090942  0.26525851  0.01260054     0.19310
C2401       C  0.90301813  0.28681096  0.19846460    -0.06520
C2402       C  0.91453827  0.32718203  0.20258693    -0.17650
C2403       C  0.95411920  0.35734849  0.19823396     0.10670
C2404       C  0.98237993  0.34674256  0.18931623    -0.06450
C2405       C  0.97076152  0.30637775  0.18507817    -0.17680
C2406       C  0.93120962  0.27627915  0.18934380     0.10710
S2407       S  0.96693992  0.40852476  0.20467763    -0.32650
S2408       S  0.91831112  0.22513897  0.18275666    -0.32650
H2409       H  0.87744390  0.21093187  0.17679647     0.28720
H2410       H  0.00819678  0.42348370  0.20968938     0.28710
H2411       H  0.89298537  0.33503484  0.21045122     0.19300
H2412       H  0.99229064  0.29844831  0.17727374     0.19310
C2413       C  0.81499946  0.00818224  0.51721214    -0.06520
C2414       C  0.80419522  0.51309703  0.54355601    -0.17650
C2415       C  0.76563369  0.48752047  0.55313857     0.10670
C2416       C  0.73774641  0.45581304  0.53613519    -0.06450
C2417       C  0.74852278  0.45095343  0.50974575    -0.17680
C2418       C  0.78714378  0.97654067  0.50016280     0.10710
S2419       S  0.75380862  0.49740478  0.58700250    -0.32650
S2420       S  0.79927019  0.96656530  0.46638401    -0.32650
H2421       H  0.84005870  0.97999299  0.47215067     0.28720
H2422       H  0.71300112  0.48408411  0.58138508     0.28710
H2423       H  0.82552851  0.53773713  0.55634953     0.19300
H2424       H  0.72722495  0.42624442  0.49698942     0.19310
C2425       C  0.71912242  0.10492921  0.70440936    -0.06520
C2426       C  0.72868130  0.09104479  0.68085484    -0.17650
C2427       C  0.70433480  0.05162646  0.67242419     0.10670
C2428       C  0.66953532  0.02615095  0.68771438    -0.06450
C2429       C  0.66017450  0.03995690  0.71140744    -0.17680
C2430       C  0.68449322  0.07939328  0.71983273     0.10710
S2431       S  0.71893598  0.03566406  0.64192833    -0.32650
S2432       S  0.66979965  0.09543675  0.75030174    -0.32650
H2433       H  0.68620285  0.13569956  0.74244843     0.28720
H2434       H  0.70163201  0.49515467  0.64941184     0.28710
H2435       H  0.75584573  0.11060897  0.66956462     0.19300
H2436       H  0.63294400  0.02044839  0.72265123     0.19310
C2437       C  0.82894367  0.35959752  0.35820963    -0.06520
C2438       C  0.86978185  0.37142828  0.35540410    -0.17650
C2439       C  0.89958209  0.41102860  0.35994728     0.10670
C2440       C  0.88820182  0.43904621  0.36790704    -0.06450
C2441       C  0.84738098  0.42717889  0.37083075    -0.17680
C2442       C  0.81759003  0.38761301  0.36622886     0.10710
S2443       S  0.95138969  0.42420436  0.35494211    -0.32650
S2444       S  0.76577154  0.37457265  0.37090102    -0.32650
H2445       H  0.75089723  0.33368731  0.37618336     0.28720
H2446       H  0.96602614  0.46495701  0.34930937     0.28710
H2447       H  0.87835042  0.35010418  0.34828997     0.19300
H2448       H  0.83879944  0.44853392  0.37785584     0.19310
C2449       C  0.95057158  0.10598573  0.19713472    -0.06520
C2450       C  0.98125855  0.09632009  0.19776752    -0.17650
C2451       C  0.97263085  0.05718824  0.19323288     0.10670
C2452       C  0.93256414  0.02730253  0.18747190    -0.06450
C2453       C  0.90195316  0.03707834  0.18656714    -0.17680
C2454       C  0.91061747  0.07621515  0.19110861     0.10710
S2455       S  0.51372196  0.04711096  0.19551891    -0.32650
S2456       S  0.86970508  0.08649063  0.18884596    -0.32650
H2457       H  0.89364505  0.12744418  0.18266357     0.28720
H2458       H  0.98998193  0.00636947  0.20234474     0.28710
H2459       H  0.51176954  0.11899595  0.20326269     0.19300
H2460       H  0.87140891  0.01439740  0.18114870     0.19310
C2461       C  0.62053259  0.12154954  0.36986325    -0.06520
C2462       C  0.58254223  0.10792280  0.35811814    -0.17650
C2463       C  0.57061565  0.13500261  0.35021853     0.10670
C2464       C  0.59700998  0.17627272  0.35497726    -0.06450
C2465       C  0.63481760  0.18983116  0.36695228    -0.17680
C2466       C  0.64670892  0.16278057  0.37486174     0.10710
S2467       S  0.52199569  0.11504995  0.33373517    -0.32650
S2468       S  0.69511407  0.18269585  0.39162250    -0.32650
H2469       H  0.68363809  0.15118815  0.41034320     0.28720
H2470       H  0.53238317  0.14713349  0.31573558     0.28710
H2471       H  0.56225599  0.07607803  0.35504359     0.19300
H2472       H  0.65517065  0.22167705  0.36997745     0.19310
C2473       C  0.76721740  0.01396766  0.02333943    -0.06520
C2474       C  0.78894942  0.52243036  0.04781682    -0.17650
C2475       C  0.80335001  0.49769545  0.05664592     0.10670
C2476       C  0.79515073  0.46375922  0.04070339    -0.06450
C2477       C  0.77350272  0.45539476  0.01622934    -0.17680
C2478       C  0.75887499  0.47987168  0.00750817     0.10710
S2479       S  0.83210515  0.51102313  0.08819162    -0.32650
S2480       S  0.72968611  0.96594647  0.97611154    -0.32650
H2481       H  0.70495656  0.98167552  0.98348817     0.28720
H2482       H  0.85593185  0.49410387  0.08120546     0.28710
H2483       H  0.79581082  0.04904671  0.05952910     0.19300
H2484       H  0.76662700  0.42879722  0.00447759     0.19310
C2485       C  0.78976624  0.27287453  0.53464991    -0.06520
C2486       C  0.75230943  0.24877166  0.52217205    -0.17650
C2487       C  0.74057314  0.20983176  0.51428014     0.10670
C2488       C  0.76648178  0.19458806  0.51984076    -0.06450
C2489       C  0.80408861  0.21877874  0.53215080    -0.17680
C2490       C  0.81589411  0.25780671  0.53998800     0.10710
S2491       S  0.69270066  0.18156075  0.49681970    -0.32650
S2492       S  0.86411877  0.28637310  0.55701003    -0.32650
H2493       H  0.85321176  0.30794893  0.57481640     0.28720
H2494       H  0.70466843  0.16151095  0.47840231     0.28710
H2495       H  0.73212894  0.26039156  0.51870151     0.19300
H2496       H  0.82421586  0.20710780  0.53564911     0.19310
C2497       C  0.93341703  0.34451247  0.68772626    -0.06520
C2498       C  0.93080099  0.31523128  0.66923339    -0.17650
C2499       C  0.93985060  0.28617673  0.67741501     0.10670
C2500       C  0.95170496  0.28639715  0.70472187    -0.06450
C2501       C  0.95393746  0.31540797  0.72328710    -0.17680
C2502       C  0.94502313  0.34454794  0.71508911     0.10710
S2503       S  0.93497043  0.24959299  0.65228275    -0.32650
S2504       S  0.95025770  0.38126936  0.74021649    -0.32650
H2505       H  0.96297603  0.41322394  0.72169882     0.28720
H2506       H  0.92351194  0.21789619  0.67086267     0.28710
H2507       H  0.92125424  0.31483964  0.64822196     0.19300
H2508       H  0.96352796  0.31580370  0.74428866     0.19310
C2509       C  0.61909104  0.43871053  0.86630017    -0.06520
C2510       C  0.58143109  0.41415567  0.85417518    -0.17650
C2511       C  0.56984428  0.37510889  0.84657163     0.10670
C2512       C  0.59608019  0.36025481  0.85215591    -0.06450
C2513       C  0.63385936  0.38491180  0.86407083    -0.17680
C2514       C  0.64553792  0.42399799  0.87154543     0.10710
S2515       S  0.52180216  0.34624118  0.82942014    -0.32650
S2516       S  0.69397228  0.45307380  0.88819274    -0.32650
H2517       H  0.68226580  0.47289889  0.90698980     0.28720
H2518       H  0.53340671  0.32524553  0.81158752     0.28710
H2519       H  0.56098526  0.42547832  0.85079266     0.19300
H2520       H  0.65423374  0.37353232  0.86757257     0.19310
C2521       C  0.72786814  0.05890987  0.19591732    -0.06520
C2522       C  0.68705470  0.02931766  0.19682549    -0.17650
C2523       C  0.65721841  0.03903351  0.19231942     0.10670
C2524       C  0.66854135  0.07897408  0.18608796    -0.06450
C2525       C  0.70935890  0.10851925  0.18486772    -0.17680
C2526       C  0.73920912  0.09881694  0.18957505     0.10710
S2527       S  0.60534757  0.99948875  0.19518490    -0.32650
S2528       S  0.79109220  0.13835979  0.18737987    -0.32650
H2529       H  0.80669290  0.11322194  0.18109403     0.28720
H2530       H  0.58971368  0.02449631  0.20188143     0.28710
H2531       H  0.67838222  0.99892894  0.20268657     0.19300
H2532       H  0.71797370  0.13893885  0.17914468     0.19310
C2533       C  0.64930810  0.41270499  0.35515661    -0.06520
C2534       C  0.62428712  0.37496314  0.36648585    -0.17650
C2535       C  0.58511738  0.36355345  0.37392755     0.10670
C2536       C  0.57055222  0.39013533  0.36911287    -0.06450
C2537       C  0.59566829  0.42803257  0.35798955    -0.17680
C2538       C  0.63488802  0.43945310  0.35053929     0.10710
S2539       S  0.55574102  0.31525969  0.39000700    -0.32650
S2540       S  0.66441798  0.48784382  0.33461523    -0.32650
H2541       H  0.68467419  0.47643906  0.31595615     0.28720
H2542       H  0.53622132  0.32711283  0.40897869     0.28710
H2543       H  0.63537998  0.35430772  0.36941185     0.19300
H2544       H  0.58452506  0.44863799  0.35502867     0.19310
C2545       C  0.73720881  0.21708341  0.03730830    -0.06520
C2546       C  0.75787199  0.20254455  0.05302184    -0.17650
C2547       C  0.79748599  0.21340943  0.04709733     0.10670
C2548       C  0.81641293  0.23916666  0.02488305    -0.06450
C2549       C  0.79578982  0.25392933  0.00933779    -0.17680
C2550       C  0.75613853  0.24280969  0.01511786     0.10710
S2551       S  0.82122239  0.19245604  0.06804873    -0.32650
S2552       S  0.73217329  0.26333381  0.99399057    -0.32650
H2553       H  0.69244686  0.23185228  0.99711394     0.28720
H2554       H  0.86137835  0.22110711  0.06245764     0.28710
H2555       H  0.74311723  0.18313178  0.07035412     0.19300
H2556       H  0.81048908  0.27340559  0.99201924     0.19310
C2557       C  0.50584079  0.24893075  0.51826731    -0.06520
C2558       C  0.54678531  0.27826823  0.51788891    -0.17650
C2559       C  0.57623523  0.26813022  0.52319655     0.10670
C2560       C  0.56431792  0.22794707  0.52918773    -0.06450
C2561       C  0.52339733  0.19861510  0.52926706    -0.17680
C2562       C  0.99399311  0.20877577  0.52425793     0.10710
S2563       S  0.62833837  0.30749149  0.52215935    -0.32650
S2564       S  0.94192449  0.16945536  0.52627974    -0.32650
H2565       H  0.92649537  0.19456276  0.53320650     0.28720
H2566       H  0.64431715  0.28235574  0.51691885     0.28710
H2567       H  0.55584496  0.30889324  0.51244992     0.19300
H2568       H  0.51422561  0.16801717  0.53488527     0.19310
C2569       C  0.89366748  0.39038385  0.86314429    -0.06520
C2570       C  0.85278895  0.36205503  0.86657441    -0.17650
C2571       C  0.82334568  0.37243327  0.86232399     0.10670
C2572       C  0.83507273  0.41169793  0.85392560    -0.06450
C2573       C  0.87593003  0.43992411  0.85018348    -0.17680
C2574       C  0.90540329  0.42956604  0.85458435     0.10710
S2575       S  0.77151989  0.33466497  0.86829251    -0.32650
S2576       S  0.95731945  0.46733660  0.84907774    -0.32650
H2577       H  0.97138809  0.44050497  0.84425516     0.28720
H2578       H  0.75777882  0.36150235  0.87411675     0.28710
H2579       H  0.84397104  0.33232932  0.87409792     0.19300
H2580       H  0.88472724  0.46969567  0.84277568     0.19310
C2581       C  0.90474735  0.05434767  0.70553583    -0.06520
C2582       C  0.91572163  0.07002241  0.67921134    -0.17650
C2583       C  0.95451770  0.08339835  0.66986972     0.10670
C2584       C  0.98237130  0.07980354  0.68706510    -0.06450
C2585       C  0.97153055  0.06454610  0.71350498    -0.17680
C2586       C  0.93277656  0.05129821  0.72288806     0.10710
S2587       S  0.96673490  0.10534888  0.63608232    -0.32650
S2588       S  0.92078124  0.02989101  0.75684285    -0.32650
H2589       H  0.88024369  0.00179283  0.75099991     0.28720
H2590       H  0.50755190  0.13249603  0.64189249     0.28710
H2591       H  0.89432874  0.07297120  0.66624847     0.19300
H2592       H  0.99286558  0.06146822  0.72644575     0.19310
C2593       C  0.79319887  0.99737838  0.71780025     0.02730
C2594       C  0.83032828  0.51304626  0.70416766    -0.13420
C2595       C  0.86518655  0.54460960  0.71548936     0.00230
C2596       C  0.86345526  0.56394758  0.73878464    -0.11950
C2597       C  0.82815583  0.54866418  0.75375510     0.02720
C2598       C  0.79231798  0.51538860  0.74313559    -0.11370
H2599       H  0.83332806  0.99852592  0.68602266     0.08320
H2600       H  0.89108812  0.58950541  0.74634208     0.05850
H2601       H  0.76486159  0.50262644  0.75499487     0.05690
C2602       C  0.59387015  0.63200486  0.67432327     0.02730
C2603       C  0.55703969  0.61783267  0.68813643    -0.13420
C2604       C  0.52121756  0.58780162  0.67668760     0.00230
C2605       C  0.52147858  0.56805776  0.65313904    -0.11950
C2606       C  0.55650854  0.58161243  0.63813433     0.02720
C2607       C  0.59333203  0.61370314  0.64879557    -0.11370
H2608       H  0.55513535  0.63267236  0.70647641     0.08320
H2609       H  0.99312237  0.54357903  0.64552160     0.05850
H2610       H  0.62061559  0.62543829  0.63681747     0.05690
C2611       C  0.77994763  0.96752409  0.83946960     0.02730
C2612       C  0.80139639  0.95235910  0.85376816    -0.13420
C2613       C  0.80575700  0.92144821  0.84279583     0.00230
C2614       C  0.78777040  0.90387821  0.81808422    -0.11950
C2615       C  0.76624311  0.91758124  0.80306494     0.02720
C2616       C  0.76192234  0.94956677  0.81383178    -0.11370
H2617       H  0.81754980  0.96636284  0.87256479     0.08320
H2618       H  0.79207953  0.88002679  0.81009236     0.05850
H2619       H  0.74637808  0.96138474  0.80190783     0.05690
C2620       C  0.94538018  0.83297752  0.88198574     0.02730
C2621       C  0.92741889  0.84996914  0.86568537    -0.13420
C2622       C  0.92244502  0.88104730  0.87571353     0.00230
C2623       C  0.93706503  0.89744902  0.90136720    -0.11950
C2624       C  0.95535622  0.88212107  0.91814499     0.02720
C2625       C  0.95993312  0.84979171  0.90841392    -0.11370
H2626       H  0.91368304  0.83685016  0.84609023     0.08320
H2627       H  0.93233445  0.92133455  0.90872853     0.05850
H2628       H  0.97275191  0.83664496  0.92178540     0.05690
C2629       C  0.94893527  0.80339990  0.50441414     0.02730
C2630       C  0.97150234  0.78908921  0.51823715    -0.13420
C2631       C  0.97721069  0.75933651  0.50667697     0.00230
C2632       C  0.95971302  0.74228048  0.48174779    -0.11950
C2633       C  0.93617661  0.75436706  0.46753939     0.02720
C2634       C  0.93064425  0.78533158  0.47885723    -0.11370
H2635       H  0.48723187  0.80277809  0.53721832     0.08320
H2636       H  0.96518445  0.71942869  0.47327977     0.05850
H2637       H  0.91376175  0.79618734  0.46748654     0.05690
C2638       C  0.61348279  0.66825209  0.54871765     0.02730
C2639       C  0.59674473  0.68624694  0.53223613    -0.13420
C2640       C  0.59181067  0.71733135  0.54239227     0.00230
C2641       C  0.60523329  0.73262543  0.56845624    -0.11950
C2642       C  0.62286698  0.71672879  0.58531254     0.02720
C2643       C  0.62731761  0.68435914  0.57544241    -0.11370
H2644       H  0.58393861  0.67393466  0.51228979     0.08320
H2645       H  0.60046275  0.75642177  0.57595095     0.05850
H2646       H  0.63953763  0.67070924  0.58888152     0.05690
C2647       C  0.92650380  0.79554593  0.00895730     0.02730
C2648       C  0.89077798  0.77902243  0.02437895    -0.13420
C2649       C  0.85505428  0.74709158  0.01422497     0.00230
C2650       C  0.85430468  0.72936792  0.98938035    -0.11950
C2651       C  0.88832549  0.74500478  0.97302721     0.02720
C2652       C  0.92504677  0.77802004  0.98295170    -0.11370
H2653       H  0.88927123  0.79321003  0.04317647     0.08320
H2654       H  0.82585695  0.70476200  0.98197857     0.05850
H2655       H  0.95139769  0.79122185  0.96996219     0.05690
C2656       C  0.62614539  0.66237050  0.05064809     0.02730
C2657       C  0.62610136  0.68121599  0.07584728    -0.13420
C2658       C  0.66259498  0.71404950  0.08634314     0.00230
C2659       C  0.69782414  0.72777532  0.07136284    -0.11950
C2660       C  0.69822965  0.70888315  0.04738260     0.02720
C2661       C  0.66293731  0.67718271  0.03674915    -0.11370
H2662       H  0.59870312  0.66940885  0.08769686     0.08320
H2663       H  0.72611481  0.75230498  0.07902427     0.05850
H2664       H  0.66533027  0.66219588  0.01864722     0.05690
C2665       C  0.95992848  0.83291888  0.38302411     0.02730
C2666       C  0.95996613  0.85033679  0.40886777    -0.13420
C2667       C  0.99616408  0.88343811  0.41936786     0.00230
C2668       C  0.53109111  0.89877097  0.40392343    -0.11950
C2669       C  0.53146319  0.88118201  0.37935635     0.02720
C2670       C  0.99619000  0.84991494  0.36826286    -0.11370
H2671       H  0.93297694  0.83714313  0.42122516     0.08320
H2672       H  0.55927131  0.92324159  0.41178644     0.05850
H2673       H  0.99850348  0.83638055  0.34938409     0.05690
C2674       C  0.76002985  0.96579328  0.34044778     0.02730
C2675       C  0.72387870  0.95077141  0.35520895    -0.13420
C2676       C  0.68772040  0.92076142  0.34417474     0.00230
C2677       C  0.68674720  0.90249484  0.31958763    -0.11950
C2678       C  0.72146558  0.91560927  0.30426293     0.02720
C2679       C  0.75865338  0.94761426  0.31467082    -0.11370
H2680       H  0.72258604  0.96489652  0.37409663     0.08320
H2681       H  0.65792128  0.87902088  0.31179811     0.05850
H2682       H  0.78559528  0.95936930  0.30232854     0.05690
C2683       C  0.61329880  0.63458033  0.17138191     0.02730
C2684       C  0.63468091  0.61942616  0.18574051    -0.13420
C2685       C  0.63951228  0.58887543  0.17467471     0.00230
C2686       C  0.62197589  0.57155762  0.14983227    -0.11950
C2687       C  0.59979073  0.58461521  0.13500981     0.02720
C2688       C  0.59521463  0.61647846  0.14576865    -0.11370
H2689       H  0.65047605  0.63319801  0.20468558     0.08320
H2690       H  0.62678098  0.54807798  0.14173473     0.05850
H2691       H  0.57933157  0.62799348  0.13391676     0.05690
C2692       C  0.77844417  0.00061159  0.21526848     0.02730
C2693       C  0.79289017  0.51741384  0.24177606    -0.13420
C2694       C  0.78853947  0.54998451  0.25142367     0.00230
C2695       C  0.77032623  0.56527046  0.23458537    -0.11950
C2696       C  0.75611841  0.54912916  0.20881744     0.02720
C2697       C  0.76099901  0.51795976  0.19884735    -0.11370
H2698       H  0.80560679  0.50422600  0.25519598     0.08320
H2699       H  0.76558175  0.58915352  0.24192198     0.05850
H2700       H  0.74764243  0.00511386  0.17911679     0.05690
C2701       C  0.54125947  0.74946908  0.83918162     0.02730
C2702       C  0.55663675  0.78621759  0.85321333    -0.13420
C2703       C  0.58727868  0.82135346  0.84195968     0.00230
C2704       C  0.60553687  0.82076830  0.81782447    -0.11950
C2705       C  0.59167011  0.78549530  0.80296910     0.02720
C2706       C  0.55927995  0.74920783  0.81368482    -0.11370
H2707       H  0.54256730  0.78870021  0.87175554     0.08320
H2708       H  0.62959777  0.84892829  0.80993097     0.05850
H2709       H  0.54722260  0.72177954  0.80184039     0.05690
C2710       C  0.67366928  0.54845282  0.88254832     0.02730
C2711       C  0.65756412  0.51280493  0.86707464    -0.13420
C2712       C  0.62724949  0.97679768  0.87768946     0.00230
C2713       C  0.60972368  0.97552599  0.90261349    -0.11950
C2714       C  0.62406595  0.50968664  0.91869519     0.02720
C2715       C  0.65631835  0.54670357  0.90867858    -0.11370
H2716       H  0.67114993  0.51167508  0.84791197     0.08320
H2717       H  0.58603812  0.94684539  0.91010492     0.05850
H2718       H  0.66890088  0.57318814  0.92156493     0.05690
C2719       C  0.87789026  0.90023536  0.67368035     0.02730
C2720       C  0.89288289  0.87854692  0.68778745    -0.13420
C2721       C  0.92426828  0.87446092  0.67707839     0.00230
C2722       C  0.94300483  0.89371058  0.65309191    -0.11950
C2723       C  0.92843677  0.91391975  0.63768343     0.02720
C2724       C  0.89587902  0.91784627  0.64810419    -0.11370
H2725       H  0.87797302  0.86157550  0.70597912     0.08320
H2726       H  0.96798794  0.89070685  0.64565476     0.05850
H2727       H  0.88359060  0.93269090  0.63592304     0.05690
C2728       C  0.51083323  0.73440755  0.71850424     0.02730
C2729       C  0.49465222  0.75508974  0.70449913    -0.13420
C2730       C  0.96219762  0.75732186  0.71512777     0.00230
C2731       C  0.94377467  0.73734906  0.73895180    -0.11950
C2732       C  0.95953990  0.71814673  0.75431052     0.02720
C2733       C  0.99300710  0.71586737  0.74392275    -0.11370
H2734       H  0.50920761  0.77253625  0.68639167     0.08320
H2735       H  0.91799999  0.73901958  0.74633375     0.05850
H2736       H  0.50598688  0.70156023  0.75597084     0.05690
C2737       C  0.70980486  0.58428898  0.50549581     0.02730
C2738       C  0.72625555  0.62061250  0.52017683    -0.13420
C2739       C  0.75736852  0.65577744  0.50923563     0.00230
C2740       C  0.77504389  0.65548970  0.48473086    -0.11950
C2741       C  0.76009454  0.62061417  0.46926250     0.02720
C2742       C  0.72728590  0.58439676  0.47969496    -0.11370
H2743       H  0.71259864  0.62288402  0.53899069     0.08320
H2744       H  0.79937628  0.68361681  0.47700614     0.05850
H2745       H  0.71446688  0.55734201  0.46739007     0.05690
C2746       C  0.84243742  0.88316958  0.54949428     0.02730
C2747       C  0.82472342  0.88187338  0.57543443    -0.13420
C2748       C  0.79317426  0.84476806  0.58595542     0.00230
C2749       C  0.78011852  0.81009540  0.57060818    -0.11950
C2750       C  0.79797928  0.81103186  0.54590994     0.02720
C2751       C  0.82753069  0.84698915  0.53479506    -0.11370
H2752       H  0.83643808  0.90884415  0.58776030     0.08320
H2753       H  0.75692363  0.78137576  0.57839126     0.05850
H2754       H  0.84132988  0.84562236  0.51579393     0.05690
C2755       C  0.71063498  0.56736460  0.00797135     0.02730
C2756       C  0.72729236  0.54811315  0.02317978    -0.13420
C2757       C  0.75832961  0.54364200  0.01243644     0.00230
C2758       C  0.77650467  0.56157117  0.98807417    -0.11950
C2759       C  0.76089229  0.58009598  0.97196503     0.02720
C2760       C  0.72784349  0.58353681  0.98194340    -0.11370
H2761       H  0.71355322  0.53259780  0.04206988     0.08320
H2762       H  0.80134008  0.55819382  0.98078147     0.05850
H2763       H  0.71454430  0.59674920  0.96908440     0.05690
C2764       C  0.84473574  0.90215824  0.05170101     0.02730
C2765       C  0.83190141  0.92648339  0.03886831    -0.13420
C2766       C  0.80353822  0.93355987  0.05120097     0.00230
C2767       C  0.78440157  0.91395892  0.07488092    -0.11950
C2768       C  0.79554245  0.88932016  0.08837452     0.02720
C2769       C  0.82619300  0.88330060  0.07685534    -0.11370
H2770       H  0.84640622  0.94317081  0.02048123     0.08320
H2771       H  0.76127682  0.91927623  0.08315922     0.05850
H2772       H  0.83644132  0.86559809  0.08776186     0.05690
C2773       C  0.67777285  0.56847253  0.38381622     0.02730
C2774       C  0.66101223  0.58808262  0.36923920    -0.13420
C2775       C  0.62994567  0.59207526  0.38037564     0.00230
C2776       C  0.61252998  0.57417104  0.40490680    -0.11950
C2777       C  0.62766739  0.55426452  0.42017852     0.02720
C2778       C  0.66049362  0.55099581  0.40959206    -0.11370
H2779       H  0.67442538  0.60391517  0.35037861     0.08320
H2780       H  0.58816923  0.57789043  0.41276232     0.05850
H2781       H  0.67349523  0.53683268  0.42176917     0.05690
C2782       C  0.54448609  0.73396808  0.34001749     0.02730
C2783       C  0.55943574  0.71283099  0.35479752    -0.13420
C2784       C  0.58867318  0.70599144  0.34356968     0.00230
C2785       C  0.60620389  0.72242733  0.31873164    -0.11950
C2786       C  0.59320108  0.74415800  0.30350243     0.02720
C2787       C  0.56197391  0.75009115  0.31409274    -0.11370
H2788       H  0.54584135  0.69803703  0.37391554     0.08320
H2789       H  0.62918043  0.71659673  0.31082466     0.05850
H2790       H  0.55025897  0.76536073  0.30180073     0.05690
C2791       C  0.50704343  0.71583017  0.21440421     0.02730
C2792       C  0.99025449  0.68029976  0.19874402    -0.13420
C2793       C  0.95973116  0.64424681  0.20929005     0.00230
C2794       C  0.94342914  0.64307279  0.23479524    -0.11950
C2795       C  0.95803558  0.67737337  0.25084737     0.02720
C2796       C  0.99011543  0.71423899  0.24064024    -0.11370
H2797       H  0.50326728  0.67934796  0.17928359     0.08320
H2798       H  0.92006758  0.61447254  0.24259884     0.05850
H2799       H  0.00301198  0.74074484  0.25351845     0.05690
C2800       C  0.87546616  0.91655535  0.17294625     0.02730
C2801       C  0.89200544  0.95299014  0.18754251    -0.13420
C2802       C  0.92296688  0.98825590  0.17648084     0.00230
C2803       C  0.93968314  0.98771051  0.15153296    -0.11950
C2804       C  0.92519038  0.95244349  0.13649413     0.02720
C2805       C  0.89283028  0.91633329  0.14722664    -0.11370
H2806       H  0.87866359  0.95516549  0.20653397     0.08320
H2807       H  0.96337546  0.51579950  0.14331392     0.05850
H2808       H  0.88013399  0.88907252  0.13513892     0.05690
C2809       C  0.77523619  0.74977665  0.34076183     0.02730
C2810       C  0.79475180  0.78535952  0.35637966    -0.13420
C2811       C  0.79982157  0.82125164  0.34605189     0.00230
C2812       C  0.78393297  0.82236254  0.32076001    -0.11950
C2813       C  0.76402843  0.78814600  0.30460626     0.02720
C2814       C  0.75934765  0.75133737  0.31464273    -0.11370
H2815       H  0.80938214  0.78643534  0.37566904     0.08320
H2816       H  0.78879237  0.85089354  0.31319738     0.05850
H2817       H  0.74534362  0.72485842  0.30173838     0.05690
C2818       C  0.94120121  0.54926626  0.38361881     0.02730
C2819       C  0.92139389  0.51312521  0.36867134    -0.13420
C2820       C  0.91742859  0.97790793  0.37933832     0.00230
C2821       C  0.93469257  0.97804231  0.40430686    -0.11950
C2822       C  0.95493440  0.51288158  0.41989144     0.02720
C2823       C  0.95858954  0.54908507  0.40948471    -0.11370
H2824       H  0.90584110  0.51109772  0.34961682     0.08320
H2825       H  0.93066340  0.94992739  0.41209818     0.05850
H2826       H  0.97300079  0.57607376  0.42186951     0.05690
C2827       C  0.77446666  0.71545109  0.71818162     0.02730
C2828       C  0.75340864  0.67888382  0.70383003    -0.13420
C2829       C  0.74873217  0.64379365  0.71514043     0.00230
C2830       C  0.76766355  0.64437125  0.73933164    -0.11950
C2831       C  0.78839560  0.67933382  0.75454629     0.02720
C2832       C  0.79228554  0.71555676  0.74395068    -0.11370
H2833       H  0.73709121  0.67647684  0.68507048     0.08320
H2834       H  0.76404142  0.61632968  0.74697460     0.05850
H2835       H  0.80728846  0.74278161  0.75606641     0.05690
C2836       C  0.60968738  0.91559152  0.67354602     0.02730
C2837       C  0.63220112  0.95197950  0.68791912    -0.13420
C2838       C  0.63921771  0.98789757  0.67649515     0.00230
C2839       C  0.62109932  0.98855732  0.65217690    -0.11950
C2840       C  0.59861137  0.95382296  0.63705881     0.02720
C2841       C  0.59269259  0.91672498  0.64768932    -0.11370
H2842       H  0.64789476  0.95343585  0.70679155     0.08320
H2843       H  0.62643649  0.51720567  0.64449117     0.05850
H2844       H  0.57663358  0.88961618  0.63554614     0.05690
C2845       C  0.92655489  0.56474362  0.50509268     0.02730
C2846       C  0.88940715  0.54261060  0.51853763    -0.13420
C2847       C  0.85423994  0.53826269  0.50702337     0.00230
C2848       C  0.85550598  0.55900024  0.48369252    -0.11950
C2849       C  0.89100326  0.58032537  0.46905885     0.02720
C2850       C  0.92720034  0.58370512  0.47984192    -0.11370
H2851       H  0.88669035  0.52532052  0.53671552     0.08320
H2852       H  0.82754090  0.55606220  0.47603358     0.05850
H2853       H  0.95482230  0.59920647  0.46822375     0.05690
C2854       C  0.62636867  0.89861999  0.54936804     0.02730
C2855       C  0.66314012  0.92045737  0.53537818    -0.13420
C2856       C  0.69878494  0.92544366  0.54660997     0.00230
C2857       C  0.69834369  0.90547641  0.57018033    -0.11950
C2858       C  0.66342070  0.88478093  0.58540233     0.02720
C2859       C  0.62678068  0.88084920  0.57492634    -0.11370
H2860       H  0.66521980  0.93717105  0.51702317     0.08320
H2861       H  0.72656100  0.90880915  0.57764393     0.05850
H2862       H  0.59958841  0.86586370  0.58703261     0.05690
C2863       C  0.79267778  0.73114780  0.21467592     0.02730
C2864       C  0.82850064  0.75125368  0.19945711    -0.13420
C2865       C  0.86472574  0.75693787  0.21006074     0.00230
C2866       C  0.86600636  0.74082608  0.23512435    -0.11950
C2867       C  0.83153427  0.72029423  0.25091155     0.02720
C2868       C  0.79435175  0.71517691  0.24064955    -0.11370
H2869       H  0.82950552  0.76600048  0.18034168     0.08320
H2870       H  0.89484374  0.74610256  0.24284318     0.05850
H2871       H  0.76766178  0.70078049  0.25328458     0.05690
C2872       C  0.59248659  0.89840271  0.17355939     0.02730
C2873       C  0.55666423  0.87997823  0.18883819    -0.13420
C2874       C  0.52125637  0.87640885  0.17832217     0.00230
C2875       C  0.52109674  0.89324948  0.15334174    -0.11950
C2876       C  0.55568543  0.91202930  0.13743749     0.02720
C2877       C  0.59195298  0.91506348  0.14762172    -0.11370
H2878       H  0.55480328  0.86472703  0.20788624     0.08320
H2879       H  0.49284242  0.88953802  0.14562475     0.05850
H2880       H  0.61862221  0.92824534  0.13494277     0.05690
C2881       C  0.94215174  0.58045928  0.00723580     0.02730
C2882       C  0.96505995  0.61665733  0.02175038    -0.13420
C2883       C  0.97422082  0.65299565  0.00993910     0.00230
C2884       C  0.95783417  0.65443902  0.98503553    -0.11950
C2885       C  0.93323060  0.61960854  0.97044431     0.02720
C2886       C  0.92564482  0.58208804  0.98134394    -0.11370
H2887       H  0.97961178  0.61755382  0.04104033     0.08320
H2888       H  0.96509144  0.68348160  0.97693200     0.05850
H2889       H  0.90857087  0.55492327  0.96940123     0.05690
C2890       C  0.60811489  0.88103611  0.04986459     0.02730
C2891       C  0.58851206  0.84481592  0.03495679    -0.13420
C2892       C  0.58517704  0.80995493  0.04575392     0.00230
C2893       C  0.60345707  0.81051913  0.07029203    -0.11950
C2894       C  0.62261161  0.84519531  0.08604015     0.02720
C2895       C  0.62554418  0.88109521  0.07574355    -0.11370
H2896       H  0.57228400  0.84234494  0.01614261     0.08320
H2897       H  0.60025875  0.78262867  0.07789584     0.05850
H2898       H  0.63930206  0.90796485  0.08826446     0.05690
C2899       C  0.75870077  0.73018944  0.83977992     0.02730
C2900       C  0.72167667  0.70956161  0.85366252    -0.13420
C2901       C  0.68706853  0.70787960  0.84305397     0.00230
C2902       C  0.68905943  0.72852554  0.81943610    -0.11950
C2903       C  0.72406330  0.74725775  0.80404841     0.02720
C2904       C  0.75965712  0.74902671  0.81444442    -0.11370
H2905       H  0.71854245  0.69163314  0.87155439     0.08320
H2906       H  0.66175410  0.72732975  0.81202350     0.05850
H2907       H  0.78694553  0.76302326  0.80239464     0.05690
C2908       C  0.95843044  0.56313214  0.88264418     0.02730
C2909       C  0.99512240  0.58474796  0.86845463    -0.13420
C2910       C  0.53066991  0.58826615  0.87889925     0.00230
C2911       C  0.53002172  0.56826301  0.90256611    -0.11950
C2912       C  0.99539011  0.54856926  0.91817746     0.02720
C2913       C  0.95889336  0.54517477  0.90803867    -0.11370
H2914       H  0.99722711  0.60224158  0.85053808     0.08320
H2915       H  0.55797678  0.57076712  0.90983918     0.05850
H2916       H  0.93189999  0.53063678  0.92037452     0.05690
O2917       O  0.86681021  0.58637579  0.79244349    -0.80530
O2918       O  0.73526321  0.61081497  0.89108683    -0.82080
O2919       O  0.77699712  0.52776053  0.83248113    -0.79100
O2920       O  0.78798331  0.64035601  0.79276362    -0.77490
O2921       O  0.83648046  0.70668022  0.79020702    -0.79280
O2922       O  0.80273398  0.51964503  0.87274533    -0.80210
O2923       O  0.72744037  0.57795032  0.85048508    -0.81540
O2924       O  0.80008358  0.56797662  0.78955908    -0.81830
Eu2925     Eu  0.79455288  0.59913449  0.83064366     2.39200
O2926       O  0.80982252  0.66211820  0.84652538    -0.89340
O2927       O  0.84497930  0.58578719  0.84665297    -0.92940
C2928       C  0.83145699  0.56813374  0.78052678     1.01750
C2929       C  0.71382794  0.58248479  0.87372898     1.01570
C2930       C  0.78516976  0.50674251  0.84915942     1.01510
C2931       C  0.80491119  0.67560864  0.78113677     0.99370
H2932       H  0.77210240  0.57480523  0.88609913     0.29120
O2933       O  0.79602190  0.59750321  0.87895266    -1.01720
H2934       H  0.85863714  0.64818783  0.79548674     0.29150
O2935       O  0.85874776  0.64812259  0.81527515    -1.04260
O2936       O  0.84801372  0.70686293  0.93443132    -0.81490
O2937       O  0.98035862  0.68611749  0.83244937    -0.81030
O2938       O  0.79990812  0.57901967  0.93391530    -0.79470
O2939       O  0.82132944  0.73134482  0.83289622    -0.82810
O2940       O  0.92132398  0.71854160  0.79273782    -0.80660
O2941       O  0.89619571  0.56234337  0.89105188    -0.79310
O2942       O  0.93192552  0.65967566  0.93313583    -0.80830
O2943       O  0.94580347  0.77170179  0.89103632    -0.82750
O2944       O  0.88507254  0.59273191  0.93494961    -0.79490
O2945       O  0.92037875  0.77881175  0.85032726    -0.82170
O2946       O  0.77791991  0.62437432  0.93501733    -0.77900
O2947       O  0.92884837  0.58726327  0.85046825    -0.77940
O2948       O  0.93981140  0.67065261  0.78999158    -0.77580
O2949       O  0.78636088  0.70466640  0.87245025    -0.81080
O2950       O  0.91557741  0.72818530  0.93576701    -0.80500
O2951       O  0.98854418  0.72123564  0.87204353    -0.78830
Eu2952     Eu  0.80859796  0.66127673  0.89454358     2.39770
Eu2953     Eu  0.90814407  0.63340968  0.83071268     2.39570
Eu2954     Eu  0.84623913  0.58543370  0.89469910     2.38400
Eu2955     Eu  0.87394926  0.71197874  0.83087567     2.39880
Eu2956     Eu  0.92301787  0.69888739  0.89465364     2.39790
O2957       O  0.92223396  0.69718787  0.84665034    -0.93250
O2958       O  0.85942852  0.64871536  0.90958316    -0.92140
C2959       C  0.88382150  0.72605700  0.94580395     1.01920
C2960       C  0.00159736  0.71578009  0.84885501     1.00640
C2961       C  0.78015482  0.59497047  0.94502545     1.00030
C2962       C  0.79186840  0.72321040  0.84931422     1.02050
C2963       C  0.93978757  0.70180104  0.78097201     1.00960
C2964       C  0.92439631  0.56922217  0.87371810     0.99810
C2965       C  0.91599846  0.62413266  0.94432108     0.99870
C2966       C  0.93877760  0.79271388  0.87353164     1.02480
H2967       H  0.93294527  0.63530485  0.88597499     0.29860
O2968       O  0.91012654  0.63659318  0.87896267    -1.05410
H2969       H  0.87262104  0.73499590  0.88640227     0.31910
O2970       O  0.87123809  0.71107978  0.87917686    -1.07970
O2971       O  0.95361077  0.92069274  0.95635827    -0.80530
O2972       O  0.60915921  0.94319342  0.05744364    -0.82080
O2973       O  0.58452471  0.96942078  0.95663902    -0.79100
O2974       O  0.98818977  0.85720912  0.00005273    -0.77490
O2975       O  0.95542989  0.85008718  0.04053682    -0.79280
O2976       O  0.60596180  0.53659560  0.95546286    -0.80210
O2977       O  0.58233539  0.90864925  0.01752573    -0.81540
O2978       O  0.99986955  0.89966403  0.95538773    -0.81830
Eu2979     Eu  0.53798640  0.93013866  0.99598333     2.39200
O2980       O  0.53930476  0.93174416  0.04408288    -0.89340
O2981       O  0.52473680  0.98007247  0.98092370    -0.92940
C2982       C  0.96999244  0.90139668  0.94526952     1.01750
C2983       C  0.60105884  0.91405706  0.04070402     1.01570
C2984       C  0.60418630  0.00506881  0.94552587     1.01510
C2985       C  0.96009454  0.83610959  0.01748669     0.99370
H2986       H  0.61207632  0.99390259  0.00433720     0.29120
O2987       O  0.58806819  0.99248645  0.01155167    -1.01720
H2988       H  0.95138551  0.89352786  0.00459440     0.29150
O2989       O  0.97410506  0.91758623  0.01175926    -1.04260
O2990       O  0.59847062  0.54451524  0.09720472    -0.81490
O2991       O  0.93868473  0.51717982  0.99915974    -0.81030
O2992       O  0.64863348  0.56717029  0.99949555    -0.79470
O2993       O  0.01623371  0.91012528  0.09881399    -0.82810
O2994       O  0.90441802  0.89792574  0.05818061    -0.80660
O2995       O  0.53529712  0.54952035  0.95650041    -0.79310
O2996       O  0.56281882  0.60177770  0.05772556    -0.80830
O2997       O  0.96350410  0.49061786  0.09806242    -0.82750
O2998       O  0.59730877  0.60911364  0.01805736    -0.79490
O2999       O  0.94497381  0.92429755  0.10085042    -0.82170
O3000       O  0.65656463  0.54160849  0.03978726    -0.77900
O3001       O  0.96777058  0.50349013  0.95491604    -0.77940
O3002       O  0.89568939  0.92305841  0.01792863    -0.77580
O3003       O  0.58305091  0.95825376  0.10099091    -0.81080
O3004       O  0.55014200  0.56260653  0.10006063    -0.80500
O3005       O  0.96354422  0.54948382  0.04006860    -0.78830
Eu3006     Eu  0.58974694  0.99556048  0.05983091     2.39770
Eu3007     Eu  0.96126146  0.96695658  0.99588626     2.39570
Eu3008     Eu  0.57529670  0.54346990  0.99593072     2.38400
Eu3009     Eu  0.97629625  0.91701990  0.06016233     2.39880
Eu3010     Eu  0.51068947  0.52983844  0.05978655     2.39790
O3011       O  0.96243860  0.96670973  0.04396775    -0.93250
O3012       O  0.57443214  0.54325678  0.04390728    -0.92140
C3013       C  0.58205398  0.56334477  0.10881168     1.01920
C3014       C  0.94595562  0.54543962  0.01654813     1.00640
C3015       C  0.67015472  0.56028818  0.01674602     1.00030
C3016       C  0.55177134  0.92733583  0.11042736     1.02050
C3017       C  0.88317521  0.90595639  0.04155005     1.00960
C3018       C  0.49954309  0.53320599  0.94508039     0.99810
C3019       C  0.59223484  0.62257946  0.04120248     0.99870
C3020       C  0.94502676  0.95558439  0.10984604     1.02480
H3021       H  0.51179350  0.55361530  0.00422482     0.29860
O3022       O  0.51294486  0.53099127  0.01146148    -1.05410
H3023       H  0.52613743  0.98150827  0.09524361     0.31910
O3024       O  0.52583395  0.98110104  0.07545297    -1.07970
O3025       O  0.93410261  0.71405961  0.42968224    -0.80530
O3026       O  0.77397374  0.68757802  0.33206179    -0.82080
O3027       O  0.89744217  0.77159247  0.39023371    -0.79100
O3028       O  0.79852018  0.65956896  0.43093775    -0.77490
O3029       O  0.77985376  0.59314906  0.43329797    -0.79280
O3030       O  0.93287789  0.77871167  0.35104297    -0.80210
O3031       O  0.79976368  0.72036989  0.37270964    -0.81540
O3032       O  0.88589306  0.73221480  0.43288395    -0.81830
Eu3033     Eu  0.84592761  0.69956316  0.39263321     2.39200
O3034       O  0.79746092  0.63664047  0.37655048    -0.89340
O3035       O  0.90966188  0.71298700  0.37651969    -0.92940
C3036       C  0.91790390  0.73294401  0.44144550     1.01750
C3037       C  0.78134530  0.71586505  0.34947163     1.01570
C3038       C  0.92699181  0.79244665  0.37381464     1.01510
C3039       C  0.77995992  0.62431381  0.44253172     0.99370
H3040       H  0.84721092  0.72341907  0.33705691     0.29120
O3041       O  0.84838635  0.70078414  0.34424326    -1.01720
H3042       H  0.86121347  0.65095064  0.42788107     0.29150
O3043       O  0.86085870  0.65063813  0.40808899    -1.04260
O3044       O  0.78772882  0.58979376  0.28928179    -0.81490
O3045       O  0.94370943  0.61233620  0.39063786    -0.81030
O3046       O  0.87180853  0.72107370  0.28908218    -0.79470
O3047       O  0.73904853  0.56690338  0.39069573    -0.82810
O3048       O  0.85216760  0.58011230  0.43062088    -0.80660
O3049       O  0.98375726  0.73615514  0.33183150    -0.79310
O3050       O  0.91899416  0.63765536  0.28907509    -0.80830
O3051       O  0.82257958  0.52673424  0.33203387    -0.82750
O3052       O  0.94046825  0.70483258  0.28773980    -0.79490
O3053       O  0.79000812  0.51969988  0.37256951    -0.82170
O3054       O  0.80427273  0.67501119  0.28763368    -0.77540
O3055       O  0.99140818  0.71081387  0.37230781    -0.77940
O3056       O  0.91887363  0.62822942  0.43348696    -0.77580
O3057       O  0.73106079  0.59435945  0.35134117    -0.81080
O3058       O  0.83369860  0.56836056  0.28835971    -0.80500
O3059       O  0.91580938  0.57717340  0.35111145    -0.78830
Eu3060     Eu  0.79639366  0.63722917  0.32843561     2.39770
Eu3061     Eu  0.92470347  0.66503783  0.39233032     2.39570
Eu3062     Eu  0.91067272  0.71319314  0.32844417     2.38400
Eu3063     Eu  0.81118235  0.58669752  0.39251765     2.39880
Eu3064     Eu  0.87262354  0.59954211  0.32856855     2.39790
O3065       O  0.87409676  0.60125341  0.37659272    -0.93250
O3066       O  0.85975891  0.64985801  0.31354941    -0.92140
C3067       C  0.80369425  0.56995637  0.27834557     1.01920
C3068       C  0.93478902  0.58267354  0.37421668     1.00640
C3069       C  0.83600117  0.70488484  0.27779009     1.00030
C3070       C  0.71786658  0.57542129  0.37434605     1.02050
C3071       C  0.88755383  0.59698778  0.44248293     1.00960
C3072       C  0.00494652  0.72884385  0.34908083     0.99810
C3073       C  0.93853979  0.67316356  0.27783066     0.99870
C3074       C  0.79433395  0.50576250  0.34937119     1.02480
H3075       H  0.94685768  0.66293025  0.33677238     0.29860
O3076       O  0.92302035  0.66184735  0.34401785    -1.05410
H3077       H  0.78608241  0.56358420  0.33712405     0.31910
O3078       O  0.80892756  0.58759888  0.34421092    -1.07970
O3079       O  0.73035830  0.93651290  0.72463176    -0.80530
O3080       O  0.75316655  0.80483677  0.62383040    -0.82080
O3081       O  0.81665767  0.90183309  0.66594816    -0.79100
O3082       O  0.70323829  0.88511894  0.62362656    -0.77490
O3083       O  0.63572001  0.83910505  0.62192250    -0.79280
O3084       O  0.82486909  0.87669341  0.70635208    -0.80210
O3085       O  0.77413454  0.87187199  0.62227624    -0.81540
O3086       O  0.76541611  0.94421450  0.68514861    -0.81830
Eu3087     Eu  0.74337437  0.87871054  0.66284065     2.39200
O3088       O  0.69270432  0.81533628  0.64784477    -0.89340
O3089       O  0.74236199  0.87855956  0.71091524    -0.92940
C3090       C  0.75986034  0.95749624  0.70820936     1.01750
C3091       C  0.77276220  0.84038646  0.61258177     1.01570
C3092       C  0.83817183  0.89469901  0.68304226     1.01510
C3093       C  0.66749131  0.86898043  0.61219744     0.99370
H3094       H  0.78001969  0.82886944  0.67129856     0.29120
O3095       O  0.75617239  0.82777302  0.67851657    -1.01720
H3096       H  0.67986793  0.88858865  0.67128356     0.29150
O3097       O  0.68095572  0.86592482  0.67849179    -1.04260
O3098       O  0.65658060  0.69271147  0.66638524    -0.81490
O3099       O  0.63057022  0.82418908  0.76476844    -0.81030
O3100       O  0.77704780  0.77845644  0.72507270    -0.79470
O3101       O  0.62109427  0.75530888  0.62353316    -0.82810
O3102       O  0.60669435  0.85247012  0.66575912    -0.80660
O3103       O  0.76611709  0.87895640  0.76472140    -0.79310
O3104       O  0.68523762  0.74601114  0.76532057    -0.80830
O3105       O  0.57206909  0.73249529  0.72514111    -0.82750
O3106       O  0.75203732  0.79408193  0.76790902    -0.79490
O3107       O  0.56368182  0.75941733  0.68566381    -0.82170
O3108       O  0.74991083  0.74363877  0.68529822    -0.77900
O3109       O  0.71737244  0.89651560  0.76756812    -0.77940
O3110       O  0.63199905  0.88525919  0.70647449    -0.77580
O3111       O  0.66764078  0.73461845  0.62247580    -0.81080
O3112       O  0.62378607  0.68518783  0.70691625    -0.80500
O3113       O  0.61246129  0.75796795  0.76756187    -0.78830
Eu3114     Eu  0.70620146  0.76552300  0.66292488     2.39770
Eu3115     Eu  0.67833953  0.86467925  0.72681255     2.39570
Eu3116     Eu  0.75798398  0.83103795  0.72678365     2.38400
Eu3117     Eu  0.62910633  0.80214918  0.66279884     2.39880
Eu3118     Eu  0.64429622  0.75197858  0.72687805     2.39790
O3119       O  0.63016194  0.80160123  0.71087634    -0.93250
O3120       O  0.70749601  0.76716681  0.71098929    -0.92140
C3121       C  0.62824308  0.67158673  0.68361928     1.01920
C3122       C  0.61210671  0.78903952  0.77650169     1.00640
C3123       C  0.76849595  0.74899576  0.70856087     1.00030
C3124       C  0.63751481  0.73601968  0.61246043     1.02050
C3125       C  0.61413691  0.88094193  0.68298744     1.00960
C3126       C  0.74919180  0.89716038  0.77649660     0.99810
C3127       C  0.72067040  0.76309263  0.77712981     0.99870
C3128       C  0.55073068  0.74089981  0.70882642     1.02480
H3129       H  0.69392209  0.81635073  0.76202715     0.29860
O3130       O  0.69376790  0.81608835  0.74223700    -1.05410
H3131       H  0.61944876  0.72885842  0.67138032     0.31910
O3132       O  0.64218724  0.75289093  0.67854201    -1.07970
O3133       O  0.70176974  0.75364255  0.12461620    -0.80530
O3134       O  0.56869784  0.77793192  0.22306148    -0.82080
O3135       O  0.61000632  0.69464936  0.16450266    -0.79100
O3136       O  0.62140012  0.80631463  0.12446689    -0.77490
O3137       O  0.66940619  0.87288207  0.12247871    -0.79280
O3138       O  0.63701563  0.68713490  0.20437519    -0.80210
O3139       O  0.56120588  0.74482201  0.18258465    -0.81540
O3140       O  0.63491188  0.73467540  0.12185143    -0.81830
Eu3141     Eu  0.62839710  0.76616155  0.16271882     2.39200
O3142       O  0.64289448  0.82891915  0.17893041    -0.89340
O3143       O  0.67900490  0.75314219  0.17878940    -0.92940
C3144       C  0.66630970  0.73478200  0.11283190     1.01750
C3145       C  0.54740000  0.74957843  0.20568362     1.01570
C3146       C  0.61868231  0.67387946  0.18104079     1.01510
C3147       C  0.63835756  0.84161314  0.11298528     0.99370
H3148       H  0.60592008  0.74189890  0.21810151     0.29120
O3149       O  0.62991077  0.76461444  0.21105014    -1.01720
H3150       H  0.69262599  0.81589809  0.12783864     0.29150
O3151       O  0.69248265  0.81575961  0.14762813    -1.04260
O3152       O  0.68125697  0.87507049  0.26633408    -0.81490
O3153       O  0.81425458  0.85376667  0.16568170    -0.81030
O3154       O  0.63306171  0.74431678  0.26567096    -0.79470
O3155       O  0.65474192  0.89912704  0.16586903    -0.82810
O3156       O  0.75547197  0.88753081  0.12618716    -0.80660
O3157       O  0.73027778  0.72986862  0.22327575    -0.79310
O3158       O  0.76452751  0.82800916  0.26659941    -0.80830
O3159       O  0.77900992  0.93927856  0.22396957    -0.82750
O3160       O  0.71852432  0.76075872  0.26763969    -0.79490
O3161       O  0.75291190  0.94629076  0.18352949    -0.82170
O3162       O  0.61169865  0.79011047  0.26738059    -0.77900
O3163       O  0.76284801  0.75526657  0.18275572    -0.77940
O3164       O  0.77373005  0.83958790  0.12269972    -0.77580
O3165       O  0.61996908  0.87175840  0.20536628    -0.81080
O3166       O  0.74887591  0.89689474  0.26796478    -0.80500
O3167       O  0.82205982  0.88881100  0.20527160    -0.78830
Eu3168     Eu  0.64196469  0.82802603  0.22701745     2.39770
Eu3169     Eu  0.74203600  0.80131653  0.16308521     2.39570
Eu3170     Eu  0.68024304  0.75270563  0.22682657     2.38400
Eu3171     Eu  0.70693564  0.87935044  0.16356194     2.39880
Eu3172     Eu  0.75629614  0.86644039  0.22737011     2.39790
O3173       O  0.75551405  0.86485312  0.17931141    -0.93250
O3174       O  0.69287857  0.81569279  0.24212538    -0.92140
C3175       C  0.71706913  0.89507019  0.27764161     1.01920
C3176       C  0.83538649  0.88325258  0.18225500     1.00640
C3177       C  0.61336218  0.76013466  0.27694941     1.00030
C3178       C  0.62549592  0.89088642  0.18250038     1.02050
C3179       C  0.77420786  0.87125513  0.11427387     1.00960
C3180       C  0.75847918  0.73702035  0.20590038     0.99810
C3181       C  0.74848352  0.79242418  0.27768196     0.99870
C3182       C  0.77169216  0.96027781  0.20664657     1.02480
H3183       H  0.76680896  0.80309469  0.21859634     0.29860
O3184       O  0.74403898  0.80435312  0.21142935    -1.05410
H3185       H  0.70553224  0.90200574  0.21896501     0.31910
O3186       O  0.70434132  0.87816833  0.21176996    -1.07970
O3187       O  0.51680857  0.54262129  0.59974802    -0.80530
O3188       O  0.64849201  0.52135969  0.49840692    -0.82080
O3189       O  0.59832503  0.49385233  0.59932383    -0.79100
O3190       O  0.61368141  0.60672746  0.55721638    -0.77490
O3191       O  0.58781395  0.61413001  0.51677044    -0.79280
O3192       O  0.55171803  0.92681660  0.60086417    -0.80210
O3193       O  0.65663380  0.55627067  0.53809731    -0.81540
O3194       O  0.58426088  0.56369786  0.60161555    -0.81830
Eu3195     Eu  0.59095279  0.53388538  0.56053328     2.39200
O3196       O  0.59009998  0.53240558  0.51246008    -0.89340
O3197       O  0.52734540  0.98373036  0.57539251    -0.92940
C3198       C  0.55247782  0.56189238  0.61129892     1.01750
C3199       C  0.66977481  0.55086112  0.51492930     1.01570
C3200       C  0.58221564  0.95826487  0.61053380     1.01510
C3201       C  0.60652295  0.62790648  0.53994389     0.99370
H3202       H  0.60088823  0.97047246  0.55190882     0.29120
O3203       O  0.57810002  0.97168920  0.54475210    -1.01720
H3204       H  0.54048846  0.56994180  0.55217772     0.29150
O3205       O  0.53921069  0.54609680  0.54491989    -1.04260
O3206       O  0.53540393  0.92140469  0.45801444    -0.81490
O3207       O  0.90339297  0.94621012  0.55737119    -0.81030
O3208       O  0.56380891  0.89728552  0.55714687    -0.79470
O3209       O  0.58945068  0.55472214  0.45857306    -0.82810
O3210       O  0.98976571  0.56721586  0.49844241    -0.80660
O3211       O  0.96765234  0.91374102  0.59949014    -0.79310
O3212       O  0.94465653  0.86292916  0.49796289    -0.80830
O3213       O  0.95452191  0.97404577  0.45823397    -0.82750
O3214       O  0.97070487  0.85485124  0.53809147    -0.79490
O3215       O  0.00304642  0.54037906  0.45580162    -0.82170
O3216       O  0.59702724  0.92268160  0.51680176    -0.77900
O3217       O  0.94627977  0.95952587  0.60117223    -0.77940
O3218       O  0.95479300  0.54008330  0.53794940    -0.77580
O3219       O  0.60782937  0.50673707  0.45585315    -0.81080
O3220       O  0.46861705  0.90294998  0.45544048    -0.80500
O3221       O  0.89543899  0.91309803  0.51683899    -0.78830
Eu3222     Eu  0.57624069  0.96868896  0.49644878     2.39770
Eu3223     Eu  0.97665822  0.99647421  0.56038732     2.39570
Eu3224     Eu  0.51404546  0.92048783  0.56030715     2.38400
Eu3225     Eu  0.54178769  0.54729038  0.49658651     2.39880
Eu3226     Eu  0.96239263  0.93424631  0.49639045     2.39790
O3227       O  0.97775066  0.99728627  0.51232618    -0.93250
O3228       O  0.51296898  0.92104076  0.51227952    -0.92140
C3229       C  0.49990949  0.90302750  0.44625811     1.01920
C3230       C  0.88199713  0.91763087  0.54018753     1.00640
C3231       C  0.59229215  0.90442515  0.54003701     1.00030
C3232       C  0.60790070  0.53796835  0.44685136     1.02050
C3233       C  0.96022217  0.55871918  0.51483116     1.00960
C3234       C  0.94814020  0.92972023  0.61089306     0.99810
C3235       C  0.95320367  0.84204241  0.51447775     0.99870
C3236       C  0.97145858  0.50925625  0.44662351     1.02480
H3237       H  0.94014076  0.90993039  0.55190368     0.29860
O3238       O  0.96394803  0.93267393  0.54469376    -1.05410
H3239       H  0.52655891  0.48340027  0.46132870     0.31910
O3240       O  0.52668347  0.98336426  0.48111870    -1.07970
C3241       C  0.57009679  0.61888205  0.86879150    -0.06520
C3242       C  0.59696013  0.64718900  0.88791702    -0.17650
C3243       C  0.63531143  0.67683989  0.88030446     0.10670
C3244       C  0.64705224  0.67831353  0.85289756    -0.06450
C3245       C  0.62004544  0.65030464  0.83370217    -0.17680
C3246       C  0.58173751  0.62057238  0.84133371     0.10710
S3247       S  0.66716516  0.71195038  0.90631406    -0.32650
S3248       S  0.55003144  0.58532671  0.81535545    -0.32650
H3249       H  0.53073472  0.55231482  0.83302384     0.28720
H3250       H  0.68786179  0.74468582  0.88857299     0.28710
H3251       H  0.58776878  0.64636435  0.90901031     0.19300
H3252       H  0.62927567  0.65109161  0.81262330     0.19310
C3253       C  0.50415035  0.69085312  0.02183005    -0.06520
C3254       C  0.99020549  0.71143026  0.03774070    -0.17650
C3255       C  0.51568950  0.75132755  0.04474495     0.10670
C3256       C  0.55580972  0.77088522  0.03516083    -0.06450
C3257       C  0.56980199  0.75026813  0.01926688    -0.17680
C3258       C  0.54427163  0.71026138  0.01243849     0.10710
S3259       S  0.49445573  0.77513988  0.06539986    -0.32650
S3260       S  0.56389732  0.68626715  0.99060832    -0.32650
H3261       H  0.54019461  0.64752959  0.00124492     0.28720
H3262       H  0.53005565  0.80696248  0.07627037     0.28710
H3263       H  0.95891843  0.69658563  0.04401483     0.19300
H3264       H  0.60090947  0.76525843  0.01260062     0.19310
C3265       C  0.90301813  0.78681100  0.19846462    -0.06520
C3266       C  0.91453827  0.82718206  0.20258694    -0.17650
C3267       C  0.95411920  0.85734852  0.19823397     0.10670
C3268       C  0.98237993  0.84674260  0.18931625    -0.06450
C3269       C  0.97076152  0.80637779  0.18507819    -0.17680
C3270       C  0.93120963  0.77627918  0.18934382     0.10710
S3271       S  0.96693991  0.90852480  0.20467764    -0.32650
S3272       S  0.91831113  0.72513901  0.18275668    -0.32650
H3273       H  0.87744391  0.71093189  0.17679651     0.28720
H3274       H  0.00819677  0.92348375  0.20968938     0.28710
H3275       H  0.89298537  0.83503487  0.21045123     0.19300
H3276       H  0.99229065  0.79844835  0.17727376     0.19310
C3277       C  0.81499946  0.50818223  0.51721215    -0.06520
C3278       C  0.80419523  0.01309702  0.54355602    -0.17650
C3279       C  0.76563370  0.98752046  0.55313858     0.10670
C3280       C  0.73774642  0.95581304  0.53613520    -0.06450
C3281       C  0.74852277  0.95095344  0.50974575    -0.17680
C3282       C  0.78714379  0.47654066  0.50016281     0.10710
S3283       S  0.75380864  0.99740476  0.58700251    -0.32650
S3284       S  0.79927021  0.46656528  0.46638402    -0.32650
H3285       H  0.84005872  0.47999298  0.47215069     0.28720
H3286       H  0.71300115  0.98408410  0.58138510     0.28710
H3287       H  0.82552853  0.03773712  0.55634954     0.19300
H3288       H  0.72722494  0.92624443  0.49698942     0.19310
C3289       C  0.71912242  0.60492921  0.70440938    -0.06520
C3290       C  0.72868129  0.59104479  0.68085485    -0.17650
C3291       C  0.70433479  0.55162646  0.67242419     0.10670
C3292       C  0.66953531  0.52615096  0.68771438    -0.06450
C3293       C  0.66017450  0.53995690  0.71140746    -0.17680
C3294       C  0.68449322  0.57939327  0.71983275     0.10710
S3295       S  0.71893596  0.53566406  0.64192833    -0.32650
S3296       S  0.66979966  0.59543674  0.75030177    -0.32650
H3297       H  0.68620286  0.63569955  0.74244846     0.28720
H3298       H  0.70163203  0.99515466  0.64941185     0.28710
H3299       H  0.75584573  0.61060897  0.66956463     0.19300
H3300       H  0.63294400  0.52044839  0.72265124     0.19310
C3301       C  0.82894368  0.85959753  0.35820962    -0.06520
C3302       C  0.86978186  0.87142829  0.35540409    -0.17650
C3303       C  0.89958210  0.91102861  0.35994727     0.10670
C3304       C  0.88820183  0.93904622  0.36790703    -0.06450
C3305       C  0.84738099  0.92717890  0.37083074    -0.17680
C3306       C  0.81759004  0.88761301  0.36622885     0.10710
S3307       S  0.95138970  0.92420437  0.35494210    -0.32650
S3308       S  0.76577155  0.87457265  0.37090102    -0.32650
H3309       H  0.75089725  0.83368732  0.37618336     0.28720
H3310       H  0.96602615  0.96495702  0.34930936     0.28710
H3311       H  0.87835043  0.85010419  0.34828996     0.19300
H3312       H  0.83879945  0.94853392  0.37785584     0.19310
C3313       C  0.95057128  0.60598592  0.19713452    -0.06520
C3314       C  0.98125831  0.59632037  0.19776708    -0.17650
C3315       C  0.97263065  0.55718853  0.19323242     0.10670
C3316       C  0.93256389  0.52730274  0.18747164    -0.06450
C3317       C  0.90195285  0.53707847  0.18656709    -0.17680
C3318       C  0.91061712  0.57621527  0.19110858     0.10710
S3319       S  0.51372196  0.54711103  0.19551877    -0.32650
S3320       S  0.86970465  0.58649064  0.18884622    -0.32650
H3321       H  0.89364449  0.62744419  0.18266379     0.28720
H3322       H  0.98998200  0.50636993  0.20234414     0.28710
H3323       H  0.51176953  0.61899600  0.20326259     0.19300
H3324       H  0.87140855  0.51439747  0.18114880     0.19310
C3325       C  0.62053259  0.62154956  0.36986326    -0.06520
C3326       C  0.58254224  0.60792281  0.35811815    -0.17650
C3327       C  0.57061566  0.63500262  0.35021853     0.10670
C3328       C  0.59700999  0.67627274  0.35497727    -0.06450
C3329       C  0.63481761  0.68983118  0.36695229    -0.17680
C3330       C  0.64670893  0.66278058  0.37486174     0.10710
S3331       S  0.52199570  0.61504996  0.33373517    -0.32650
S3332       S  0.69511408  0.68269586  0.39162250    -0.32650
H3333       H  0.68363810  0.65118816  0.41034320     0.28720
H3334       H  0.53238318  0.64713351  0.31573559     0.28710
H3335       H  0.56225600  0.57607804  0.35504360     0.19300
H3336       H  0.65517067  0.72167707  0.36997746     0.19310
C3337       C  0.76721745  0.51396770  0.02333945    -0.06520
C3338       C  0.78894938  0.02243031  0.04781679    -0.17650
C3339       C  0.80334996  0.99769539  0.05664588     0.10670
C3340       C  0.79515064  0.96375914  0.04070335    -0.06450
C3341       C  0.77350262  0.95539469  0.01622931    -0.17680
C3342       C  0.75887492  0.97987162  0.00750814     0.10710
S3343       S  0.83210511  0.01102306  0.08819158    -0.32650
S3344       S  0.72968620  0.46594651  0.97611155    -0.32650
H3345       H  0.70495662  0.48167554  0.98348818     0.28720
H3346       H  0.85593181  0.99410380  0.08120540     0.28710
H3347       H  0.79581084  0.54904676  0.05952913     0.19300
H3348       H  0.76662689  0.92879714  0.00447757     0.19310
C3349       C  0.78976624  0.77287453  0.53464990    -0.06520
C3350       C  0.75230944  0.74877166  0.52217204    -0.17650
C3351       C  0.74057314  0.70983176  0.51428013     0.10670
C3352       C  0.76648178  0.69458805  0.51984076    -0.06450
C3353       C  0.80408861  0.71877873  0.53215080    -0.17680
C3354       C  0.81589411  0.75780670  0.53998800     0.10710
S3355       S  0.69270066  0.68156075  0.49681969    -0.32650
S3356       S  0.86411877  0.78637310  0.55701003    -0.32650
H3357       H  0.85321176  0.80794893  0.57481640     0.28720
H3358       H  0.70466843  0.66151094  0.47840230     0.28710
H3359       H  0.73212895  0.76039157  0.51870150     0.19300
H3360       H  0.82421585  0.70710780  0.53564912     0.19310
C3361       C  0.93341705  0.84451249  0.68772627    -0.06520
C3362       C  0.93080101  0.81523129  0.66923340    -0.17650
C3363       C  0.93985061  0.78617675  0.67741503     0.10670
C3364       C  0.95170498  0.78639717  0.70472189    -0.06450
C3365       C  0.95393749  0.81540800  0.72328711    -0.17680
C3366       C  0.94502316  0.84454797  0.71508913     0.10710
S3367       S  0.93497043  0.74959300  0.65228277    -0.32650
S3368       S  0.95025774  0.88126940  0.74021649    -0.32650
H3369       H  0.96297606  0.91322397  0.72169883     0.28720
H3370       H  0.92351195  0.71789621  0.67086270     0.28710
H3371       H  0.92125425  0.81483965  0.64822197     0.19300
H3372       H  0.96352799  0.81580373  0.74428867     0.19310
C3373       C  0.61909103  0.93871053  0.86630017    -0.06520
C3374       C  0.58143108  0.91415566  0.85417518    -0.17650
C3375       C  0.56984427  0.87510888  0.84657163     0.10670
C3376       C  0.59608019  0.86025481  0.85215591    -0.06450
C3377       C  0.63385936  0.88491180  0.86407083    -0.17680
C3378       C  0.64553791  0.92399799  0.87154543     0.10710
S3379       S  0.52180215  0.84624117  0.82942014    -0.32650
S3380       S  0.69397227  0.95307380  0.88819274    -0.32650
H3381       H  0.68226578  0.97289889  0.90698980     0.28720
H3382       H  0.53340670  0.82524553  0.81158752     0.28710
H3383       H  0.56098524  0.92547831  0.85079266     0.19300
H3384       H  0.65423374  0.87353233  0.86757257     0.19310
C3385       C  0.72786807  0.55890984  0.19591735    -0.06520
C3386       C  0.68705463  0.52931763  0.19682552    -0.17650
C3387       C  0.65721834  0.53903348  0.19231944     0.10670
C3388       C  0.66854129  0.57897406  0.18608798    -0.06450
C3389       C  0.70935884  0.60851922  0.18486774    -0.17680
C3390       C  0.73920906  0.59881691  0.18957507     0.10710
S3391       S  0.60534750  0.49948873  0.19518492    -0.32650
S3392       S  0.79109214  0.63835976  0.18737990    -0.32650
H3393       H  0.80669279  0.61322189  0.18109398     0.28720
H3394       H  0.58971361  0.52449629  0.20188143     0.28710
H3395       H  0.67838215  0.49892891  0.20268659     0.19300
H3396       H  0.71797364  0.63893882  0.17914470     0.19310
C3397       C  0.64930810  0.91270498  0.35515661    -0.06520
C3398       C  0.62428712  0.87496312  0.36648586    -0.17650
C3399       C  0.58511738  0.86355344  0.37392756     0.10670
C3400       C  0.57055223  0.89013532  0.36911288    -0.06450
C3401       C  0.59566830  0.92803256  0.35798955    -0.17680
C3402       C  0.63488803  0.93945309  0.35053930     0.10710
S3403       S  0.55574102  0.81525968  0.39000701    -0.32650
S3404       S  0.66441799  0.98784381  0.33461523    -0.32650
H3405       H  0.68467419  0.97643904  0.31595616     0.28720
H3406       H  0.53622132  0.82711282  0.40897870     0.28710
H3407       H  0.63537998  0.85430770  0.36941186     0.19300
H3408       H  0.58452507  0.94863798  0.35502868     0.19310
C3409       C  0.73720882  0.71708338  0.03730832    -0.06520
C3410       C  0.75787200  0.70254452  0.05302186    -0.17650
C3411       C  0.79748600  0.71340940  0.04709735     0.10670
C3412       C  0.81641294  0.73916664  0.02488307    -0.06450
C3413       C  0.79578983  0.75392931  0.00933781    -0.17680
C3414       C  0.75613854  0.74280967  0.01511788     0.10710
S3415       S  0.82122240  0.69245601  0.06804875    -0.32650
S3416       S  0.73217330  0.76333379  0.99399059    -0.32650
H3417       H  0.69244687  0.73185223  0.99711394     0.28720
H3418       H  0.86137836  0.72110709  0.06245765     0.28710
H3419       H  0.74311724  0.68313175  0.07035413     0.19300
H3420       H  0.81048909  0.77340557  0.99201926     0.19310
C3421       C  0.50584075  0.74893072  0.51826734    -0.06520
C3422       C  0.54678527  0.77826820  0.51788892    -0.17650
C3423       C  0.57623519  0.76813019  0.52319656     0.10670
C3424       C  0.56431789  0.72794704  0.52918775    -0.06450
C3425       C  0.52339729  0.69861508  0.52926709    -0.17680
C3426       C  0.99399311  0.70877577  0.52425795     0.10710
S3427       S  0.62833833  0.80749146  0.52215934    -0.32650
S3428       S  0.94192449  0.66945537  0.52627978    -0.32650
H3429       H  0.92649537  0.69456278  0.53320653     0.28720
H3430       H  0.64431711  0.78235571  0.51691884     0.28710
H3431       H  0.55584491  0.80889321  0.51244992     0.19300
H3432       H  0.51422557  0.66801715  0.53488530     0.19310
C3433       C  0.89366748  0.89038385  0.86314430    -0.06520
C3434       C  0.85278895  0.86205504  0.86657443    -0.17650
C3435       C  0.82334568  0.87243328  0.86232400     0.10670
C3436       C  0.83507273  0.91169793  0.85392560    -0.06450
C3437       C  0.87593003  0.93992411  0.85018347    -0.17680
C3438       C  0.90540329  0.92956604  0.85458434     0.10710
S3439       S  0.77151989  0.83466499  0.86829253    -0.32650
S3440       S  0.95731946  0.96733658  0.84907772    -0.32650
H3441       H  0.97138809  0.94050495  0.84425514     0.28720
H3442       H  0.75777883  0.86150238  0.87411677     0.28710
H3443       H  0.84397104  0.83232933  0.87409795     0.19300
H3444       H  0.88472725  0.96969567  0.84277565     0.19310
C3445       C  0.90474735  0.55434769  0.70553584    -0.06520
C3446       C  0.91572163  0.57002241  0.67921134    -0.17650
C3447       C  0.95451769  0.58339835  0.66986972     0.10670
C3448       C  0.98237130  0.57980355  0.68706509    -0.06450
C3449       C  0.97153056  0.56454612  0.71350498    -0.17680
C3450       C  0.93277657  0.55129824  0.72288806     0.10710
S3451       S  0.96673487  0.60534886  0.63608231    -0.32650
S3452       S  0.92078127  0.52989105  0.75684286    -0.32650
H3453       H  0.88024371  0.50179286  0.75099993     0.28720
H3454       H  0.50755189  0.63249601  0.64189247     0.28710
H3455       H  0.89432873  0.57297119  0.66624847     0.19300
H3456       H  0.99286560  0.56146826  0.72644575     0.19310
loop_ 
_geom_bond_atom_site_label_1 
_geom_bond_atom_site_label_2 
_geom_bond_distance 
_geom_bond_site_symmetry_2 
_ccdc_geom_bond_type 
C1          C498   1.497       .  S
C1          C866   1.408       .  A
C1          C870   1.426       .  A
C2            C3   1.391       .  A
C2          C865   1.408   1_545  A
C2          H871   1.084   1_545  S
C3          C853   1.454       .  S
C3            C4   1.378       .  A
C4            C5   1.387       .  A
C4            H8   1.086       .  S
C5          C336   1.478       .  S
C5            C6   1.424       .  A
C6          C865   1.426   1_545  A
C6            H9   1.083       .  S
H7          C866   1.084       .  S
C10         C529   1.499       .  S
C10          C11   1.408       .  A
C10          C15   1.425       .  A
C11          C12   1.392       .  A
C11          H16   1.084       .  S
C12        C2584   1.455   1_455  S
C12          C13   1.380       .  A
C13          C14   1.385       .  A
C13        H1745   1.085   1_455  S
C14         C606   1.481       .  S
C14          C15   1.427       .  A
C15          H18   1.083       .  S
H17        C1741   1.085       .  S
C19        C1202   1.498       .  S
C19          C20   1.409       .  A
C19          C24   1.425       .  A
C20          C21   1.391       .  A
C20          H25   1.084       .  S
C21         C844   1.456       .  S
C21          C22   1.382       .  A
C22          C23   1.390       .  A
C22          H26   1.085       .  S
C23         C534   1.483       .  S
C23          C24   1.425       .  A
C24          H27   1.083       .  S
C28         C374   1.499       .  S
C28          C29   1.409       .  A
C28          C33   1.422       .  A
C29          C30   1.393       .  A
C29          H34   1.084       .  S
C30         C841   1.455       .  S
C30          C31   1.384       .  A
C31          C32   1.387       .  A
C31          H35   1.085       .  S
C32         C390   1.480       .  S
C32          C33   1.425       .  A
C33          H36   1.083       .  S
C37         C643   1.497       .  S
C37          C38   1.409       .  A
C37          C42   1.425       .  A
C38          C39   1.391       .  A
C38        H1771   1.084       .  S
C39        C2557   1.458       .  S
C39          C40   1.382       .  A
C40          C41   1.390       .  A
C40          H44   1.085       .  S
C41         C444   1.484       .  S
C41          C42   1.425       .  A
C42          H45   1.083       .  S
H43        C1766   1.084       .  S
C46         C609   1.502       .  S
C46          C47   1.409       .  A
C46          C51   1.424       .  A
C47          C48   1.395       .  A
C47          H52   1.084       .  S
C48         C832   1.457       .  S
C48          C49   1.385       .  A
C49          C50   1.387       .  A
C49          H53   1.085       .  S
C50         C532   1.481       .  S
C50          C51   1.426       .  A
C51          H54   1.083       .  S
C55         C393   1.501       .  S
C55          C56   1.409       .  A
C55          C60   1.424   1_554  A
C56          C57   1.393       .  A
C56          H61   1.084       .  S
C57         C820   1.454       .  S
C57          C58   1.384   1_554  A
C58          C59   1.387       .  A
C58          H62   1.086       .  S
C59         C367   1.482       .  S
C59          C60   1.426       .  A
C60          H63   1.083       .  S
C64         C427   1.500       .  S
C64          C65   1.428       .  A
C64          C69   1.407       .  A
C65          C66   1.428       .  A
C65          H70   1.083       .  S
C66         C552   1.487       .  S
C66          C67   1.390       .  A
C67          C68   1.382       .  A
C67          H71   1.085       .  S
C68         C817   1.453       .  S
C68          C69   1.389       .  A
C69          H72   1.084       .  S
C73         C446   1.500       .  S
C73          C74   1.427       .  A
C73          C78   1.407       .  A
C74          C75   1.426       .  A
C74          H79   1.083       .  S
C75        C2365   1.483       .  S
C75        C1804   1.388       .  A
C76          C77   1.380       .  A
C76        C1803   1.388   1_455  A
C76          H80   1.085       .  S
C77         C808   1.451       .  S
C77        C1806   1.390   1_455  A
C78        C1805   1.390       .  A
C78          H81   1.084       .  S
C82        C1346   1.502       .  S
C82          C83   1.408       .  A
C82          C87   1.427       .  A
C83          C84   1.391       .  A
C83          H88   1.084       .  S
C84         C805   1.450       .  S
C84          C85   1.381       .  A
C85          C86   1.386       .  A
C85          H89   1.085       .  S
C86         C583   1.484       .  S
C86          C87   1.429       .  A
C87          H90   1.083       .  S
C91         C554   1.498       .  S
C91          C92   1.408       .  A
C91          C96   1.426       .  A
C92          C93   1.390       .  A
C92          H97   1.084       .  S
C93         C796   1.455       .  S
C93          C94   1.381       .  A
C94          C95   1.388       .  A
C94          H98   1.085       .  S
C95         C421   1.483       .  S
C95          C96   1.425       .  A
C96          H99   1.083       .  S
C100        C590   1.502       .  S
C100        C965   1.425       .  A
C100        C969   1.408       .  A
C101        C102   1.427       .  A
C101        C964   1.425       .  A
C101        H106   1.083       .  S
C102        C475   1.482       .  S
C102        C103   1.386       .  A
C103        C104   1.384       .  A
C103        H107   1.085       .  S
C104        C793   1.455       .  S
C104        C105   1.393       .  A
C105        C964   1.408       .  A
C105        H972   1.084       .  S
H108        C969   1.084       .  S
C109       C2096   1.500       .  S
C109        C110   1.407       .  A
C109        C114   1.428       .  A
C110        C111   1.389       .  A
C110        H115   1.084       .  S
C111        C784   1.449       .  S
C111        C112   1.378       .  A
C112        C113   1.388       .  A
C112        H116   1.085       .  S
C113        C530   1.484       .  S
C113        C114   1.428       .  A
C114        H117   1.083       .  S
C118        C337   1.503       .  S
C118        C119   1.408       .  A
C118        C123   1.426       .  A
C119        C984   1.391   1_545  A
C119        H124   1.084       .  S
C120        C781   1.449       .  S
C120        C121   1.381       .  A
C120        C983   1.391       .  A
C121        C986   1.386       .  A
C121        H125   1.085       .  S
C122       C1256   1.483       .  S
C122        C123   1.429       .  A
C122        C985   1.386   1_545  A
C123        H126   1.083       .  S
C127        C500   1.502       .  S
C127        C128   1.409       .  A
C127        C132   1.426       .  A
C128        C129   1.394       .  A
C128        H133   1.083       .  S
C129        C769   1.461       .  S
C129        C130   1.382       .  A
C130        C131   1.386       .  A
C130        H134   1.085       .  S
C131        C642   1.483       .  S
C131        C132   1.427       .  A
C132        H135   1.083       .  S
C136        C536   1.500       .  S
C136        C137   1.408   1_455  A
C136       C1869   1.427   1_455  A
C137       C1866   1.393       .  A
C137        H142   1.083   1_655  S
C138        C772   1.459       .  S
C138        C139   1.381       .  A
C138       C1865   1.393       .  A
C139        C140   1.387       .  A
C139        H143   1.086       .  S
C140        C371   1.481       .  S
C140        C141   1.425       .  A
C141       C1864   1.427       .  A
C141       H1872   1.083       .  S
H144       C1869   1.083   1_455  S
C145        C607   1.501       .  S
C145        C146   1.407       .  A
C145        C150   1.428       .  A
C146        C147   1.390       .  A
C146        H151   1.084       .  S
C147        C760   1.450       .  S
C147        C148   1.380       .  A
C148        C149   1.388       .  A
C148        H152   1.085       .  S
C149        C447   1.484       .  S
C149        C150   1.427       .  A
C150        H153   1.082       .  S
C154        C638   1.503       .  S
C154        C155   1.428       .  A
C154        C159   1.408       .  A
C155        C156   1.430       .  A
C155        H160   1.083       .  S
C156        C499   1.485       .  S
C156        C157   1.386       .  A
C157        C158   1.380       .  A
C157        H161   1.085       .  S
C158        C757   1.448       .  S
C158        C159   1.390       .  A
C159        H162   1.084       .  S
C163        C423   1.500       .  S
C163        C164   1.408       .  A
C163        C168   1.426   1_554  A
C164        C165   1.390       .  A
C164        H169   1.084       .  S
C165        C745   1.449       .  S
C165        C166   1.379   1_554  A
C166        C167   1.383       .  A
C166        H170   1.086       .  S
C167        C369   1.479       .  S
C167        C168   1.427       .  A
C168        H171   1.083       .  S
C172        C425   1.494       .  S
C172        C173   1.406       .  A
C172        C177   1.425       .  A
C173        C174   1.387       .  A
C173        H178   1.084       .  S
C174        C748   1.449       .  S
C174        C175   1.377       .  A
C175        C176   1.388       .  A
C175        H179   1.085       .  S
C176        C587   1.480       .  S
C176        C177   1.425       .  A
C177        H180   1.083       .  S
C181        C478   1.498       .  S
C181        C182   1.406       .  A
C181        C186   1.427       .  A
C182        C183   1.389       .  A
C182        H187   1.084       .  S
C183        C733   1.448       .  S
C183        C184   1.379       .  A
C184        C185   1.388       .  A
C184        H188   1.086       .  S
C185        C640   1.482       .  S
C185        C186   1.426       .  A
C186        H189   1.082       .  S
C190       C2208   1.497       .  S
C190        C191   1.407       .  A
C190        C195   1.424       .  A
C191        C192   1.389       .  A
C191        H196   1.084       .  S
C192        C736   1.447       .  S
C192        C193   1.380       .  A
C193        C194   1.386       .  A
C193        H197   1.085       .  S
C194        C585   1.479       .  S
C194        C195   1.426       .  A
C195        H198   1.083       .  S
C199        C553   1.502       .  S
C199       C1928   1.408   1_455  A
C199       C1932   1.425   1_455  A
C200        C201   1.394       .  A
C200       C1927   1.408       .  A
C200       H1933   1.084       .  S
C201        C721   1.459       .  S
C201        C202   1.385       .  A
C202        C203   1.388       .  A
C202        H206   1.085       .  S
C203        C481   1.485       .  S
C203        C204   1.427       .  A
C204       C1927   1.425       .  A
C204        H207   1.083       .  S
H205       C1928   1.084   1_455  S
C208        C584   1.499       .  S
C208        C209   1.408       .  A
C208        C213   1.425       .  A
C209        C210   1.392       .  A
C209        H214   1.084       .  S
C210       C1588   1.460       .  S
C210        C211   1.383       .  A
C211        C212   1.390       .  A
C211       H1079   1.085       .  S
C212        C428   1.483       .  S
C212        C213   1.424       .  A
C213        H216   1.083       .  S
H215       C1075   1.085   1_545  S
C217        C445   1.501       .  S
C217        C218   1.409       .  A
C217        C222   1.424       .  A
C218        C219   1.393       .  A
C218        H223   1.084       .  S
C219        C709   1.456       .  S
C219        C220   1.384       .  A
C220        C221   1.388       .  A
C220        H224   1.085       .  S
C221        C589   1.483       .  S
C221        C222   1.426       .  A
C222        H225   1.083       .  S
C226        C476   1.500       .  S
C226        C227   1.408       .  A
C226        C231   1.426       .  A
C227       C1092   1.391   1_545  A
C227        H232   1.084       .  S
C228        C712   1.456       .  S
C228        C229   1.383       .  A
C228       C1091   1.391       .  A
C229       C1094   1.390       .  A
C229        H233   1.085       .  S
C230        C644   1.485       .  S
C230        C231   1.426       .  A
C230       C1093   1.390   1_545  A
C231        H234   1.083       .  S
C235        C531   1.498       .  S
C235        C236   1.407       .  A
C235        C240   1.427       .  A
C236        C237   1.388       .  A
C236        H241   1.084       .  S
C237        C697   1.448       .  S
C237        C238   1.377       .  A
C238        C239   1.385       .  A
C238        H242   1.086       .  S
C239        C339   1.480       .  S
C239        C240   1.426       .  A
C240        H243   1.083       .  S
C244        C533   1.502       .  S
C244        C245   1.408       .  A
C244        C249   1.428       .  A
C245        C246   1.390       .  A
C245        H250   1.084       .  S
C246       C1564   1.449       .  S
C246        C247   1.379       .  A
C247        C248   1.384       .  A
C247       H1115   1.085       .  S
C248        C608   1.484       .  S
C248        C249   1.430       .  A
C249        H252   1.083       .  S
H251       C1111   1.085   1_545  S
C253        C641   1.498       .  S
C253        C254   1.407       .  A
C253        C258   1.427       .  A
C254        C255   1.389       .  A
C254        H259   1.084       .  S
C255        C685   1.454       .  S
C255        C256   1.379       .  A
C256        C257   1.388       .  A
C256        H260   1.085       .  S
C257        C479   1.482       .  S
C257        C258   1.426       .  A
C258        H261   1.083       .  S
C262        C639   1.502       .  S
C262        C263   1.408       .  A
C262        C267   1.427       .  A
C263        C264   1.392       .  A
C263        H268   1.084       .  S
C264        C688   1.456       .  S
C264        C265   1.380       .  A
C265        C266   1.386       .  A
C265        H269   1.085       .  S
C266        C501   1.483       .  S
C266        C267   1.428       .  A
C267        H270   1.083       .  S
C271        C588   1.500       .  S
C271        C272   1.408       .  A
C271        C276   1.425       .  A
C272        C273   1.391       .  A
C272        H277   1.084       .  S
C273        C673   1.455       .  S
C273        C274   1.384       .  A
C274        C275   1.389       .  A
C274        H278   1.085       .  S
C275        C477   1.485       .  S
C275        C276   1.427       .  A
C276        H279   1.083       .  S
C280        C586   1.497       .  S
C280        C281   1.407       .  A
C280        C285   1.425       .  A
C281        C282   1.390       .  A
C281        H286   1.084       .  S
C282       C2404   1.455   1_455  S
C282        C283   1.383       .  A
C283        C284   1.390       .  A
C283        H287   1.085   1_455  S
C284        C424   1.482       .  S
C284        C285   1.424       .  A
C285        H288   1.083       .  S
C289        C422   1.500       .  S
C289        C290   1.408       .  A
C289        C294   1.426   1_554  A
C290        C291   1.389       .  A
C290        H295   1.084       .  S
C291       C2389   1.448       .  S
C291        C292   1.379   1_554  A
C292        C293   1.386       .  A
C292        H296   1.085       .  S
C293        C373   1.483       .  S
C293        C294   1.429       .  A
C294        H297   1.083       .  S
C298        C391   1.497       .  S
C298        C299   1.409       .  A
C298        C303   1.425       .  A
C299        C300   1.390       .  A
C299        H304   1.084       .  S
C300        C664   1.448       .  S
C300        C301   1.379       .  A
C301        C302   1.387       .  A
C301        H305   1.086       .  S
C302        C555   1.480       .  S
C302        C303   1.424       .  A
C303        H306   1.083       .  S
C307        C370   1.499       .  S
C307        C308   1.409       .  A
C307        C312   1.426       .  A
C308        C309   1.394       .  A
C308        H313   1.083       .  S
C309        C652   1.463       .  S
C309        C310   1.382       .  A
C310        C311   1.388       .  A
C310        H314   1.086       .  S
C311        C535   1.481       .  S
C311        C312   1.424       .  A
C312        H315   1.083       .  S
C316        C372   1.501       .  S
C316        C317   1.410       .  A
C316        C321   1.424       .  A
C317       C2046   1.395       .  A
C317        H322   1.083       .  S
C318        C649   1.463       .  S
C318        C319   1.383       .  A
C318       C2045   1.395   1_455  A
C319       C2048   1.386   1_455  A
C319        H323   1.085       .  S
C320       C2154   1.481       .  S
C320        C321   1.426       .  A
C320       C2047   1.386       .  A
C321        H324   1.083       .  S
O325        C336   1.307       .  A
O325       Eu361   2.524       .  S
O326        C337   1.295       .  A
O326       Eu360   2.496       .  S
O327        C338   1.293       .  A
O327       Eu333   2.486       .  S
O328        C339   1.308       .  A
O328       Eu333   2.532       .  S
O329        C339   1.279       .  A
O329       Eu363   2.392       .  S
O330        C338   1.296       .  A
O330       Eu362   2.469       .  S
O331        C337   1.298       .  A
O331       Eu333   2.479       .  S
O332        C336   1.281       .  A
O332       Eu333   2.400       .  S
Eu333       O343   2.355       .  S
Eu333       O335   2.367       .  S
Eu333       O334   2.325       .  S
Eu333       O341   2.359       .  S
O334       Eu363   2.368       .  S
O334       Eu360   2.343       .  S
O335       Eu361   2.325       .  S
O335       Eu362   2.344       .  S
C338        C883   1.498   1_545  S
H340        O341   0.963       .  S
O341       Eu362   2.325       .  S
O341       Eu360   2.379       .  S
H342        O343   0.965       .  S
O343       Eu361   2.355       .  S
O343       Eu363   2.353       .  S
O344        C367   1.309       .  A
O344       Eu360   2.542       .  S
O345        C368   1.292       .  A
O345       Eu361   2.482       .  S
O346        C369   1.310       .  A
O346       Eu362   2.543       .  S
O347        C370   1.292       .  A
O347       Eu363   2.481       .  S
O348        C371   1.307       .  A
O348       Eu363   2.529       .  S
O349        C372   1.295       .  A
O349       Eu362   2.493       .  S
O350        C373   1.309       .  A
O350       Eu364   2.539       .  S
O351        C374   1.295       .  A
O351       Eu364   2.494       .  S
O352        C373   1.279       .  A
O352       Eu362   2.389       .  S
O353        C374   1.296       .  A
O353       Eu363   2.468       .  S
O354        C369   1.277       .  A
O354       Eu360   2.378       .  S
O355        C372   1.298       .  A
O355       Eu361   2.479       .  S
O356        C371   1.280       .  A
O356       Eu361   2.400       .  S
O357        C370   1.297       .  A
O357       Eu360   2.474       .  S
O358        C367   1.279       .  A
O358       Eu364   2.388       .  S
O359        C368   1.298       .  A
O359       Eu364   2.476       .  S
Eu360       O378   2.327       .  S
Eu360       O366   2.348       .  S
Eu361       O365   2.367       .  S
Eu361       O376   2.356       .  S
Eu362       O376   2.379       .  S
Eu362       O366   2.344       .  S
Eu363       O365   2.323       .  S
Eu363       O378   2.358       .  S
Eu364       O365   2.342       .  S
Eu364       O376   2.324       .  S
Eu364       O378   2.380       .  S
Eu364       O366   2.347       .  S
C368       C1837   1.500       .  S
H375        O376   0.963       .  S
H377        O378   0.963       .  S
O379        C390   1.309       .  A
O379       Eu415   2.539       .  S
O380        C391   1.293       .  A
O380       Eu414   2.481       .  S
O381        C392   1.311       .  A
O381       Eu387   2.547       .  S
O382        C393   1.295       .  A
O382      Eu2115   2.493   1_554  S
O383        C393   1.298       .  A
O383       Eu417   2.477       .  S
O384       C1256   1.278       .  A
O384       Eu416   2.384       .  S
O385        C391   1.296       .  A
O385       Eu387   2.467   1_554  S
O386        C390   1.278       .  A
O386      Eu2115   2.384       .  S
Eu387      O2110   2.493   1_456  S
Eu387      O2114   2.384   1_455  S
Eu387       O389   2.343       .  S
Eu387       O388   2.347   1_556  S
Eu387       O395   2.323   1_556  S
Eu387      O2125   2.379   1_456  S
O388       Eu414   2.366       .  S
O388      Eu2145   2.328   1_455  S
O389      Eu2143   2.345   1_455  S
O389      Eu1280   2.345       .  S
C392        C986   1.483       .  S
C392       O1248   1.278       .  A
H394        O395   0.963       .  S
O395       Eu414   2.357       .  S
O395      Eu1280   2.378   1_554  S
H396        O397   0.963       .  S
O397       Eu415   2.326   1_554  S
O397       Eu417   2.363       .  S
O397      Eu2115   2.379   1_554  S
O398        C421   1.306       .  A
O398      Eu1278   2.520   1_545  S
O399        C422   1.294   1_556  A
O399      Eu1279   2.492   1_545  S
O400        C423   1.294   1_556  A
O400       Eu416   2.489       .  S
O401       C2152   1.306       .  A
O401       Eu417   2.522       .  S
O402        C425   1.291       .  A
O402       Eu417   2.473       .  S
O403        C426   1.309   1_455  A
O403       Eu416   2.538       .  S
O404        C427   1.291       .  A
O404       Eu418   2.478       .  S
O405       C1292   1.305       .  A
O405      Eu2146   2.518   1_565  S
O406        C427   1.298       .  A
O406       Eu416   2.475   1_554  S
O407        C428   1.282       .  A
O407       Eu417   2.412       .  S
O408        C423   1.298       .  A
O408      Eu1278   2.478   1_545  S
O409       C2154   1.278       .  A
O409      Eu1279   2.388   1_545  S
O410        C425   1.297       .  A
O410       Eu415   2.471   1_554  S
O411        C424   1.282       .  A
O411       Eu414   2.410       .  S
O412        C421   1.282       .  A
O412       Eu418   2.407       .  S
O413        C422   1.297       .  A
O413      Eu2146   2.476       .  S
Eu414      O1262   2.520       .  S
Eu414      O1272   2.478       .  S
Eu414       O432   2.356       .  S
Eu414      O1284   2.327       .  S
Eu415      O1263   2.492       .  S
Eu415      O1273   2.388       .  S
Eu415       O419   2.346   1_556  S
Eu415      O2117   2.345       .  S
Eu415      O3022   2.383   1_556  S
Eu416       O430   2.321   1_556  S
Eu416       O420   2.341   1_556  S
Eu416      O1253   2.345   1_545  S
Eu416      O1259   2.378   1_546  S
Eu417       O419   2.367       .  S
Eu417      O2116   2.328       .  S
Eu417      O2160   2.355       .  S
Eu418      O2133   2.518   1_445  S
Eu418      O2141   2.476   1_455  S
Eu418       O430   2.359       .  S
Eu418       O420   2.365       .  S
Eu418      O3011   2.326   1_445  S
Eu418      O1296   2.356   1_545  S
O419      Eu3010   2.326       .  S
O420      Eu1278   2.327   1_545  S
C424       O2129   1.306       .  A
C426       C2048   1.481       .  S
C426       O2137   1.278       .  A
C428       O1269   1.305       .  A
H429        O430   0.963       .  S
O430      Eu3007   2.383   1_444  S
H431        O432   0.965       .  S
O432      Eu2145   2.355   1_455  S
O432      Eu1282   2.356       .  S
O433        C444   1.305       .  A
O433       Eu469   2.515       .  S
O434        C445   1.295       .  A
O434       Eu468   2.494       .  S
O435        C446   1.292       .  A
O435       Eu441   2.476       .  S
O436        C447   1.308       .  A
O436       Eu441   2.530       .  S
O437        C447   1.281       .  A
O437       Eu471   2.405       .  S
O438        C446   1.298       .  A
O438       Eu470   2.480       .  S
O439        C445   1.298       .  A
O439       Eu441   2.478       .  S
O440        C444   1.282       .  A
O440       Eu441   2.413       .  S
Eu441       O451   2.354       .  S
Eu441       O443   2.369       .  S
Eu441       O442   2.327       .  S
Eu441       O449   2.362       .  S
O442       Eu471   2.369       .  S
O442       Eu468   2.348       .  S
O443       Eu469   2.328       .  S
O443       Eu470   2.346       .  S
H448        O449   0.963       .  S
O449       Eu470   2.324       .  S
O449       Eu468   2.378       .  S
H450        O451   0.965       .  S
O451       Eu469   2.356       .  S
O451       Eu471   2.357       .  S
O452        C475   1.310       .  A
O452       Eu468   2.546       .  S
O453        C476   1.292       .  A
O453       Eu469   2.481       .  S
O454        C477   1.309       .  A
O454       Eu470   2.536       .  S
O455        C478   1.291       .  A
O455       Eu471   2.475       .  S
O456        C479   1.307       .  A
O456       Eu471   2.524       .  S
O457        C480   1.293       .  A
O457       Eu470   2.485       .  S
O458        C481   1.309       .  A
O458       Eu472   2.540       .  S
O459        C482   1.294       .  A
O459       Eu472   2.489       .  S
O460        C481   1.280       .  A
O460       Eu470   2.396       .  S
O461        C482   1.299       .  A
O461       Eu471   2.483       .  S
O462        C477   1.280       .  A
O462       Eu468   2.397       .  S
O463        C480   1.297       .  A
O463       Eu469   2.472       .  S
O464        C479   1.281       .  A
O464       Eu469   2.406       .  S
O465        C478   1.298       .  A
O465       Eu468   2.477       .  S
O466        C475   1.278       .  A
O466       Eu472   2.385       .  S
O467        C476   1.297       .  A
O467       Eu472   2.474       .  S
Eu468       O486   2.326       .  S
Eu468       O474   2.346       .  S
Eu469       O473   2.366       .  S
Eu469       O484   2.359       .  S
Eu470       O484   2.380       .  S
Eu470       O474   2.346       .  S
Eu471       O473   2.324       .  S
Eu471       O486   2.358       .  S
Eu472       O473   2.343       .  S
Eu472       O484   2.324       .  S
Eu472       O486   2.378       .  S
Eu472       O474   2.347       .  S
C480       C1918   1.497       .  S
C482        C946   1.502   1_545  S
H483        O484   0.963       .  S
H485        O486   0.963       .  S
O487        C498   1.292       .  A
O487       Eu523   2.475       .  S
O488        C499   1.311       .  A
O488       Eu522   2.545       .  S
O489        C500   1.294       .  A
O489       Eu495   2.491       .  S
O490        C501   1.310       .  A
O490       Eu495   2.539       .  S
O491        C501   1.279       .  A
O491       Eu525   2.392       .  S
O492        C500   1.299       .  A
O492       Eu524   2.484       .  S
O493        C499   1.279       .  A
O493       Eu495   2.389       .  S
O494        C498   1.297       .  A
O494       Eu495   2.474       .  S
Eu495       O505   2.322       .  S
Eu495       O497   2.345       .  S
Eu495       O496   2.346       .  S
Eu495       O503   2.378       .  S
O496       Eu525   2.348       .  S
O496       Eu522   2.345       .  S
O497       Eu523   2.370       .  S
O497       Eu524   2.328       .  S
H502        O503   0.963       .  S
O503       Eu524   2.356       .  S
O503       Eu522   2.320       .  S
H504        O505   0.963       .  S
O505       Eu523   2.359       .  S
O505       Eu525   2.380       .  S
O506        C529   1.294       .  A
O506       Eu522   2.486       .  S
O507        C530   1.307       .  A
O507       Eu523   2.528       .  S
O508        C531   1.292       .  A
O508       Eu524   2.479       .  S
O509        C532   1.309       .  A
O509       Eu525   2.541       .  S
O510        C533   1.294       .  A
O510       Eu525   2.490       .  S
O511        C534   1.305       .  A
O511       Eu524   2.519       .  S
O512        C535   1.307       .  A
O512       Eu526   2.525       .  S
O513        C536   1.292       .  A
O513       Eu526   2.482       .  S
O514        C535   1.281       .  A
O514       Eu524   2.407       .  S
O515        C536   1.298       .  A
O515       Eu525   2.478       .  S
O516        C531   1.297       .  A
O516       Eu522   2.474       .  S
O517        C534   1.283       .  A
O517       Eu523   2.413       .  S
O518        C533   1.299       .  A
O518       Eu523   2.486       .  S
O519        C532   1.279       .  A
O519       Eu522   2.388       .  S
O520        C529   1.298       .  A
O520       Eu526   2.481       .  S
O521        C530   1.281       .  A
O521       Eu526   2.405       .  S
Eu522       O540   2.380       .  S
Eu522       O528   2.345       .  S
Eu523       O527   2.326       .  S
Eu523       O538   2.354       .  S
Eu524       O538   2.358       .  S
Eu524       O528   2.368       .  S
Eu525       O527   2.346       .  S
Eu525       O540   2.326       .  S
Eu526       O527   2.368       .  S
Eu526       O538   2.356       .  S
Eu526       O540   2.360       .  S
Eu526       O528   2.327       .  S
H537        O538   0.965       .  S
H539        O540   0.963       .  S
O541        C552   1.307       .  A
O541       Eu577   2.531       .  S
O542        C553   1.295       .  A
O542       Eu576   2.493       .  S
O543        C554   1.292       .  A
O543       Eu549   2.482       .  S
O544        C555   1.306       .  A
O544       Eu549   2.524       .  S
O545        C555   1.281       .  A
O545       Eu579   2.401       .  S
O546        C554   1.297       .  A
O546       Eu578   2.473       .  S
O547        C553   1.298       .  A
O547       Eu549   2.481       .  S
O548        C552   1.282       .  A
O548       Eu549   2.411       .  S
Eu549       O559   2.355       .  S
Eu549       O551   2.367       .  S
Eu549       O550   2.331       .  S
Eu549       O557   2.360       .  S
O550       Eu579   2.368       .  S
O550       Eu576   2.346       .  S
O551       Eu577   2.323       .  S
O551       Eu578   2.344       .  S
H556        O557   0.963       .  S
O557       Eu578   2.326       .  S
O557       Eu576   2.379       .  S
H558        O559   0.965       .  S
O559       Eu577   2.355       .  S
O559       Eu579   2.357       .  S
O560        C583   1.310       .  A
O560       Eu576   2.542       .  S
O561        C584   1.293       .  A
O561       Eu577   2.481       .  S
O562        C585   1.308       .  A
O562       Eu578   2.533       .  S
O563        C586   1.292       .  A
O563       Eu579   2.478       .  S
O564        C587   1.305       .  A
O564       Eu579   2.516       .  S
O565        C588   1.294       .  A
O565       Eu578   2.488       .  S
O566        C589   1.308       .  A
O566       Eu580   2.536       .  S
O567        C590   1.295       .  A
O567       Eu580   2.495       .  S
O568        C589   1.280       .  A
O568       Eu578   2.394       .  S
O569        C590   1.297       .  A
O569       Eu579   2.477       .  S
O570        C585   1.278       .  A
O570       Eu576   2.385       .  S
O571        C588   1.297       .  A
O571       Eu577   2.477       .  S
O572        C587   1.281       .  A
O572       Eu577   2.401       .  S
O573        C586   1.296       .  A
O573       Eu576   2.469       .  S
O574        C583   1.279       .  A
O574       Eu580   2.391       .  S
O575        C584   1.297       .  A
O575       Eu580   2.473       .  S
Eu576       O594   2.323       .  S
Eu576       O582   2.346       .  S
Eu577       O581   2.370       .  S
Eu577       O592   2.360       .  S
Eu578       O592   2.377       .  S
Eu578       O582   2.346       .  S
Eu579       O581   2.326       .  S
Eu579       O594   2.354       .  S
Eu580       O581   2.345       .  S
Eu580       O592   2.328       .  S
Eu580       O594   2.377       .  S
Eu580       O582   2.347       .  S
H591        O592   0.963       .  S
H593        O594   0.963       .  S
O595        C606   1.309       .  A
O595      Eu3223   2.538   1_445  S
O596        C607   1.292       .  A
O596      Eu1494   2.483   1_545  S
O597       C1472   1.311       .  A
O597       Eu603   2.547   1_565  S
O598        C609   1.295       .  A
O598       Eu603   2.495       .  S
O599        C609   1.298       .  A
O599       Eu633   2.479       .  S
O600        C608   1.278       .  A
O600       Eu632   2.384       .  S
O601        C607   1.298       .  A
O601       Eu603   2.477       .  S
O602        C606   1.279       .  A
O602       Eu603   2.387       .  S
Eu603       O613   2.381       .  S
Eu603       O604   2.345       .  S
Eu603      O1469   2.346   1_545  S
Eu603      O1475   2.323   1_545  S
O604       Eu633   2.328       .  S
O604      Eu1494   2.369   1_545  S
O605       Eu632   2.344       .  S
O605      Eu1467   2.346       .  S
O605      Eu2359   2.347   1_455  S
C608       O1461   1.311       .  A
H610        O611   0.963       .  S
O611       Eu632   2.380       .  S
O611       Eu630   2.358       .  S
O611      Eu1467   2.323       .  S
H612        O613   0.963       .  S
O613       Eu633   2.360       .  S
O613      Eu3223   2.324   1_445  S
O614        C637   1.307   1_455  A
O614       Eu630   2.529       .  S
O615        C638   1.294       .  A
O615       Eu631   2.492       .  S
O616        C639   1.293       .  A
O616       Eu632   2.487       .  S
O617        C640   1.306       .  A
O617       Eu633   2.524       .  S
O618        C641   1.291       .  A
O618      Eu2361   2.474       .  S
O619        C642   1.310       .  A
O619      Eu2360   2.541       .  S
O620        C643   1.292       .  A
O620       Eu634   2.481       .  S
O621       C1508   1.307       .  A
O621       Eu634   2.526       .  S
O622        C643   1.296       .  A
O622      Eu2360   2.470       .  S
O623        C644   1.282       .  A
O623      Eu2361   2.411       .  S
O624        C639   1.300       .  A
O624       Eu630   2.488       .  S
O625        C642   1.279       .  A
O625       Eu631   2.389       .  S
O626        C641   1.298       .  A
O626      Eu1495   2.479   1_545  S
O627        C640   1.281       .  A
O627      Eu1494   2.406   1_545  S
O628        C637   1.282       .  A
O628      Eu2362   2.406       .  S
O629        C638   1.299       .  A
O629       Eu634   2.486       .  S
Eu630      O1460   2.483       .  S
Eu630      O1491   2.406       .  S
Eu630       O648   2.359       .  S
Eu630       O636   2.326       .  S
Eu630      O1468   2.369       .  S
Eu631      O3187   2.538       .  S
Eu631      O1490   2.479       .  S
Eu631       O635   2.345       .  S
Eu631       O646   2.380       .  S
Eu631      O2333   2.347       .  S
Eu631      O3205   2.324       .  S
Eu632      O2347   2.541   1_455  S
Eu632      O2350   2.470   1_455  S
Eu632       O636   2.343       .  S
Eu632      O2374   2.322   1_455  S
Eu633      O2346   2.474   1_455  S
Eu633      O2351   2.411       .  S
Eu633      O3227   2.369   1_445  S
Eu633      O1512   2.354   1_545  S
Eu634      O2356   2.406       .  S
Eu634       O635   2.327       .  S
Eu634       O646   2.358       .  S
Eu634      O2376   2.358       .  S
Eu634      O2364   2.367       .  S
O635      Eu3225   2.369       .  S
O636      Eu2362   2.367   1_455  S
C637       C1803   1.483       .  S
C644       O1485   1.307   1_545  A
H645        O646   0.963       .  S
O646      Eu2360   2.322       .  S
H647       O1512   0.965       .  S
O648      Eu1497   2.354       .  S
O648      Eu2362   2.358   1_455  S
O648       H1511   0.965       .  S
C649        C650   1.409       .  A
C649        C654   1.405       .  A
C650        C651   1.389       .  A
C650        H659   1.084       .  S
C651        C652   1.405       .  A
C651        S655   1.805       .  S
C652        C653   1.408       .  A
C653        C654   1.389       .  A
C653        H660   1.084       .  S
C654        S656   1.804       .  S
S655        H658   1.406       .  S
S656        H657   1.405       .  S
C661       C2019   1.448   1_455  S
C661        C666   1.411       .  A
C661       C2390   1.395   1_455  A
C662       C2389   1.395       .  A
C662       C2391   1.388       .  A
C662        H671   1.085       .  S
C663        C664   1.414       .  A
C663       C2390   1.388   1_455  A
C663        S667   1.810   1_455  S
C664        C665   1.397       .  A
C665        C666   1.389       .  A
C665        H672   1.084       .  S
C666        S668   1.806   1_554  S
S667        H670   1.401   1_655  S
S668        H669   1.404   1_556  S
C673        C674   1.403       .  A
C673        C678   1.406       .  A
C674        C675   1.391       .  A
C674        H683   1.085       .  S
C675        C676   1.407       .  A
C675        S679   1.805       .  S
C676       C2010   1.455       .  S
C676        C677   1.403       .  A
C677        C678   1.389       .  A
C677        H684   1.085       .  S
C678        S680   1.804       .  S
S679        H682   1.406       .  S
S680        H681   1.406       .  S
C685        C690   1.416   1_545  A
C685       C1550   1.393       .  A
C686        C687   1.387       .  A
C686       C1549   1.393       .  A
C686        H695   1.084       .  S
C687        C688   1.416       .  A
C687        S691   1.805       .  S
C688        C689   1.395       .  A
C689       C1554   1.388       .  A
C689        H696   1.084       .  S
C690       C1553   1.388       .  A
C690        S692   1.807       .  S
S691        H694   1.407       .  S
S692        H693   1.407       .  S
C697        C698   1.393       .  A
C697        C702   1.414       .  A
C698        C699   1.387       .  A
C698        H707   1.084       .  S
C699        C700   1.414       .  A
C699        S703   1.805       .  S
C700       C1110   1.449   1_545  S
C700        C701   1.394       .  A
C701        C702   1.387       .  A
C701        H708   1.084       .  S
C702        S704   1.807       .  S
S703       H1570   1.406   1_545  S
S704        H705   1.406       .  S
H706       S1567   1.406       .  S
C709        C710   1.402       .  A
C709        C714   1.408       .  A
C710        C711   1.391       .  A
C710        H719   1.085       .  S
C711        C712   1.408       .  A
C711        S715   1.805       .  S
C712        C713   1.402       .  A
C713        C714   1.390       .  A
C713        H720   1.085       .  S
C714        S716   1.805       .  S
S715        H718   1.406       .  S
S716        H717   1.406       .  S
C721        C722   1.402       .  A
C721        C726   1.408       .  A
C722        C723   1.391       .  A
C722       H2459   1.085       .  S
C723        C724   1.410       .  A
C723       S2455   1.806       .  S
C724       C1074   1.460   1_545  S
C724        C725   1.403       .  A
C725        C726   1.390       .  A
C725        H732   1.085       .  S
C726        S728   1.804       .  S
S727       C2451   1.806   1_455  S
S727       H2458   1.406   1_455  S
S728        H729   1.406       .  S
H730       S2455   1.406       .  S
H731       C2450   1.085   1_455  S
C733        C734   1.397       .  A
C733        C738   1.411       .  A
C734        C735   1.388       .  A
C734        H743   1.084       .  S
C735        C736   1.412       .  A
C735        S739   1.806       .  S
C736        C737   1.396       .  A
C737        C738   1.387       .  A
C737        H744   1.085       .  S
C738        S740   1.806       .  S
S739        H742   1.404       .  S
S740        H741   1.405       .  S
C745       C1610   1.394       .  A
C745       C1614   1.415   1_545  A
C746        C747   1.389       .  A
C746       C1609   1.394       .  A
C746       H1619   1.084       .  S
C747        C748   1.414       .  A
C747        S751   1.806       .  S
C748        C749   1.393       .  A
C749        C750   1.385       .  A
C749        H756   1.084       .  S
C750       C1609   1.415       .  A
C750       S1616   1.808   1_554  S
S751        H754   1.406       .  S
S752       C1614   1.808   1_556  S
S752        H753   1.406       .  S
H755       C1610   1.084       .  S
C757        C758   1.396       .  A
C757        C762   1.412       .  A
C758        C759   1.387       .  A
C758        H767   1.085       .  S
C759        C760   1.411       .  A
C759        S763   1.806       .  S
C760        C761   1.397       .  A
C761        C762   1.389       .  A
C761        H768   1.084       .  S
C762        S764   1.807       .  S
S763        H766   1.405       .  S
S764        H765   1.404       .  S
C769        C770   1.408       .  A
C769        C774   1.405       .  A
C770        C771   1.388       .  A
C770        H779   1.084       .  S
C771        C772   1.404       .  A
C771        S775   1.805       .  S
C772        C773   1.407       .  A
C773        C774   1.388       .  A
C773        H780   1.084       .  S
C774        S776   1.804       .  S
S775        H778   1.406       .  S
S776        H777   1.406       .  S
C781        C782   1.397       .  A
C781        C786   1.412       .  A
C782        C783   1.389       .  A
C782        H791   1.084       .  S
C783        C784   1.411       .  A
C783        S787   1.806       .  S
C784        C785   1.397       .  A
C785        C786   1.388       .  A
C785        H792   1.084       .  S
C786        S788   1.806       .  S
S787        H790   1.405       .  S
S788        H789   1.405       .  S
C793        C794   1.401       .  A
C793        C798   1.409       .  A
C794        C795   1.388       .  A
C794        H803   1.085   1_545  S
C795        C796   1.409       .  A
C795        S799   1.806   1_545  S
C796        C797   1.402       .  A
C797        C798   1.390       .  A
C797        H804   1.085       .  S
C798        S800   1.804       .  S
S799        H802   1.406   1_565  S
S800        H801   1.405       .  S
C805        C806   1.397       .  A
C805        C810   1.412       .  A
C806        C807   1.388       .  A
C806        H815   1.084       .  S
C807        C808   1.412       .  A
C807        S811   1.806       .  S
C808        C809   1.397       .  A
C809        C810   1.389       .  A
C809        H816   1.084       .  S
C810        S812   1.806       .  S
S811        H814   1.405       .  S
S812        H813   1.405       .  S
C817        C818   1.404       .  A
C817        C822   1.404       .  A
C818        C819   1.391       .  A
C818        H827   1.085       .  S
C819        C820   1.405       .  A
C819        S823   1.805       .  S
C820        C821   1.405       .  A
C821        C822   1.388       .  A
C821        H828   1.085   1_554  S
C822        S824   1.805   1_554  S
S823        H826   1.402       .  S
S824        H825   1.402       .  S
C829       C1767   1.458   1_455  S
C829        C830   1.402       .  A
C829       C2562   1.409   1_455  A
C830        C831   1.392       .  A
C830        H839   1.084       .  S
C831        C832   1.410       .  A
C831        S835   1.805       .  S
C832        C833   1.401       .  A
C833       C2562   1.388   1_455  A
C833        H840   1.085       .  S
C834       C2557   1.409       .  A
C834       C2561   1.388       .  A
C834        S836   1.806       .  S
S835        H838   1.406       .  S
S836        H837   1.407       .  S
C841        C842   1.402       .  A
C841        C846   1.408       .  A
C842        C843   1.390       .  A
C842        H851   1.085       .  S
C843        C844   1.408       .  A
C843        S847   1.805       .  S
C844        C845   1.402       .  A
C845        C846   1.391       .  A
C845        H852   1.085       .  S
C846        S848   1.804       .  S
S847        H850   1.406       .  S
S848        H849   1.407       .  S
C853        C854   1.394       .  A
C853        C858   1.416       .  A
C854        C855   1.387       .  A
C854        H863   1.084       .  S
C855        C856   1.416       .  A
C855        S859   1.807       .  S
C856       C1740   1.455       .  S
C856        C857   1.394       .  A
C857        C858   1.388       .  A
C857        H864   1.084       .  S
C858        S860   1.807       .  S
S859       H2590   1.407       .  S
S860        H861   1.407       .  S
H862       S2587   1.407   1_455  S
C865       C1362   1.497       .  S
C866        C867   1.391       .  A
C867       C1717   1.454       .  S
C867        C868   1.378       .  A
C868        C869   1.387       .  A
C868        H872   1.086       .  S
C869       C1200   1.478       .  S
C869        C870   1.424       .  A
C870        H873   1.083       .  S
C874       C1393   1.499       .  S
C874        C875   1.408       .  A
C874        C879   1.425       .  A
C875        C876   1.392       .  A
C875        H880   1.084       .  S
C876       C3448   1.455   1_455  S
C876        C877   1.380       .  A
C877        C878   1.385       .  A
C877       H2609   1.085   1_455  S
C878       C1470   1.481       .  S
C878        C879   1.427       .  A
C879        H882   1.083       .  S
H881       C2605   1.085       .  S
C883        C884   1.409       .  A
C883        C888   1.425       .  A
C884        C885   1.391       .  A
C884        H889   1.084       .  S
C885       C1708   1.456       .  S
C885        C886   1.382       .  A
C886        C887   1.390       .  A
C886        H890   1.085       .  S
C887       C1398   1.483       .  S
C887        C888   1.425       .  A
C888        H891   1.083       .  S
C892       C1238   1.499       .  S
C892        C893   1.409       .  A
C892        C897   1.422       .  A
C893        C894   1.393       .  A
C893        H898   1.084       .  S
C894       C1705   1.455       .  S
C894        C895   1.384       .  A
C895        C896   1.387       .  A
C895        H899   1.085       .  S
C896       C1254   1.480       .  S
C896        C897   1.425       .  A
C897        H900   1.083       .  S
C901       C1507   1.497       .  S
C901        C902   1.409       .  A
C901        C906   1.425       .  A
C902        C903   1.391       .  A
C902       H2635   1.084       .  S
C903       C3421   1.458       .  S
C903        C904   1.382       .  A
C904        C905   1.390       .  A
C904        H908   1.085       .  S
C905       C1308   1.484       .  S
C905        C906   1.425       .  A
C906        H909   1.083       .  S
H907       C2630   1.084       .  S
C910       C1473   1.502       .  S
C910        C911   1.409       .  A
C910        C915   1.424       .  A
C911        C912   1.395       .  A
C911        H916   1.084       .  S
C912       C1696   1.457       .  S
C912        C913   1.385       .  A
C913        C914   1.387       .  A
C913        H917   1.085       .  S
C914       C1396   1.481       .  S
C914        C915   1.426       .  A
C915        H918   1.083       .  S
C919       C1257   1.501       .  S
C919        C920   1.409       .  A
C919        C924   1.424   1_554  A
C920        C921   1.393       .  A
C920        H925   1.084       .  S
C921       C1684   1.454       .  S
C921        C922   1.384   1_554  A
C922        C923   1.387       .  A
C922        H926   1.086       .  S
C923       C1231   1.482       .  S
C923        C924   1.426       .  A
C924        H927   1.083       .  S
C928       C1291   1.500       .  S
C928        C929   1.428       .  A
C928        C933   1.407       .  A
C929        C930   1.428       .  A
C929        H934   1.083       .  S
C930       C1416   1.487       .  S
C930        C931   1.390       .  A
C931        C932   1.382       .  A
C931        H935   1.085       .  S
C932       C1681   1.453       .  S
C932        C933   1.389       .  A
C933        H936   1.084       .  S
C937       C1310   1.500       .  S
C937        C938   1.427       .  A
C937        C942   1.407       .  A
C938        C939   1.426       .  A
C938        H943   1.083       .  S
C939       C3229   1.483       .  S
C939       C2668   1.388       .  A
C940       C2667   1.388   1_455  A
C940        C941   1.380       .  A
C940        H944   1.085       .  S
C941       C1672   1.451       .  S
C941       C2670   1.390   1_455  A
C942       C2669   1.390       .  A
C942        H945   1.084       .  S
C946        C947   1.408       .  A
C946        C951   1.427       .  A
C947        C948   1.391       .  A
C947        H952   1.084       .  S
C948       C1669   1.450       .  S
C948        C949   1.381       .  A
C949        C950   1.386       .  A
C949        H953   1.085       .  S
C950       C1447   1.484       .  S
C950        C951   1.429       .  A
C951        H954   1.083       .  S
C955       C1418   1.498       .  S
C955        C956   1.408       .  A
C955        C960   1.426       .  A
C956        C957   1.390       .  A
C956        H961   1.084       .  S
C957       C1660   1.455       .  S
C957        C958   1.381       .  A
C958        C959   1.388       .  A
C958        H962   1.085       .  S
C959       C1285   1.483       .  S
C959        C960   1.425       .  A
C960        H963   1.083       .  S
C964       C1454   1.502   1_545  S
C965        C966   1.427       .  A
C965        H970   1.083       .  S
C966       C1339   1.482       .  S
C966        C967   1.386       .  A
C967        C968   1.384       .  A
C967        H971   1.085       .  S
C968       C1657   1.455       .  S
C968        C969   1.393       .  A
C973       C2960   1.500       .  S
C973        C974   1.407       .  A
C973        C978   1.428       .  A
C974        C975   1.389       .  A
C974        H979   1.084       .  S
C975       C1648   1.449       .  S
C975        C976   1.378       .  A
C976        C977   1.388       .  A
C976        H980   1.085       .  S
C977       C1394   1.484       .  S
C977        C978   1.428       .  A
C978        H981   1.083       .  S
C982       C1201   1.503       .  S
C982        C983   1.408       .  A
C982        C987   1.426       .  A
C983        H988   1.084       .  S
C984       C1645   1.449       .  S
C984        C985   1.381       .  A
C985        H989   1.085       .  S
C986        C987   1.429       .  A
C987        H990   1.083       .  S
C991       C1364   1.502       .  S
C991        C992   1.409       .  A
C991        C996   1.426       .  A
C992        C993   1.394       .  A
C992        H997   1.083       .  S
C993       C1633   1.461       .  S
C993        C994   1.382       .  A
C994        C995   1.386       .  A
C994        H998   1.085       .  S
C995       C1506   1.483       .  S
C995        C996   1.427       .  A
C996        H999   1.083       .  S
C1000      C1400   1.500       .  S
C1000      C1001   1.408   1_455  A
C1000      C2733   1.427   1_455  A
C1001      C2730   1.393       .  A
C1001      H1006   1.083   1_655  S
C1002      C1636   1.459       .  S
C1002      C2729   1.393       .  A
C1002      C1003   1.381       .  A
C1003      C1004   1.387       .  A
C1003      H1007   1.086       .  S
C1004      C1235   1.481       .  S
C1004      C1005   1.425       .  A
C1005      C2728   1.427       .  A
C1005      H2736   1.083       .  S
H1008      C2733   1.083   1_455  S
C1009      C1471   1.501       .  S
C1009      C1010   1.407       .  A
C1009      C1014   1.428       .  A
C1010      C1011   1.390       .  A
C1010      H1015   1.084       .  S
C1011      C1624   1.450       .  S
C1011      C1012   1.380       .  A
C1012      C1013   1.388       .  A
C1012      H1016   1.085       .  S
C1013      C1311   1.484       .  S
C1013      C1014   1.427       .  A
C1014      H1017   1.082       .  S
C1018      C1502   1.503       .  S
C1018      C1019   1.428       .  A
C1018      C1023   1.408       .  A
C1019      C1020   1.430       .  A
C1019      H1024   1.083       .  S
C1020      C1363   1.485       .  S
C1020      C1021   1.386       .  A
C1021      C1022   1.380       .  A
C1021      H1025   1.085       .  S
C1022      C1621   1.448       .  S
C1022      C1023   1.390       .  A
C1023      H1026   1.084       .  S
C1027      C1287   1.500       .  S
C1027      C1028   1.408       .  A
C1027      C1032   1.426   1_554  A
C1028      C1029   1.390       .  A
C1028      H1033   1.084       .  S
C1029      C1609   1.449       .  S
C1029      C1030   1.379   1_554  A
C1030      C1031   1.383       .  A
C1030      H1034   1.086       .  S
C1031      C1233   1.479       .  S
C1031      C1032   1.427       .  A
C1032      H1035   1.083       .  S
C1036      C1289   1.494       .  S
C1036      C1037   1.406       .  A
C1036      C1041   1.425       .  A
C1037      C1038   1.387       .  A
C1037      H1042   1.084       .  S
C1038      C1612   1.449       .  S
C1038      C1039   1.377       .  A
C1039      C1040   1.388       .  A
C1039      H1043   1.085       .  S
C1040      C1451   1.480       .  S
C1040      C1041   1.425       .  A
C1041      H1044   1.083       .  S
C1045      C1342   1.498       .  S
C1045      C1046   1.406       .  A
C1045      C1050   1.427       .  A
C1046      C1047   1.389       .  A
C1046      H1051   1.084       .  S
C1047      C1597   1.448       .  S
C1047      C1048   1.379       .  A
C1048      C1049   1.388       .  A
C1048      H1052   1.086       .  S
C1049      C1504   1.482       .  S
C1049      C1050   1.426       .  A
C1050      H1053   1.082       .  S
C1054      C3072   1.497       .  S
C1054      C1055   1.407       .  A
C1054      C1059   1.424       .  A
C1055      C1056   1.389       .  A
C1055      H1060   1.084       .  S
C1056      C1600   1.447       .  S
C1056      C1057   1.380       .  A
C1057      C1058   1.386       .  A
C1057      H1061   1.085       .  S
C1058      C1449   1.479       .  S
C1058      C1059   1.426       .  A
C1059      H1062   1.083       .  S
C1063      C1417   1.502       .  S
C1063      C2792   1.408   1_455  A
C1063      C2796   1.425   1_455  A
C1064      C2791   1.408       .  A
C1064      C1065   1.394       .  A
C1064      H2797   1.084       .  S
C1065      C1585   1.459       .  S
C1065      C1066   1.385       .  A
C1066      C1067   1.388       .  A
C1066      H1070   1.085       .  S
C1067      C1345   1.485       .  S
C1067      C1068   1.427       .  A
C1068      C2791   1.425       .  A
C1068      H1071   1.083       .  S
H1069      C2792   1.084   1_455  S
C1072      C1448   1.499       .  S
C1072      C1073   1.408       .  A
C1072      C1077   1.425       .  A
C1073      C1074   1.392       .  A
C1073      H1078   1.084       .  S
C1074      C1075   1.383       .  A
C1075      C1076   1.390       .  A
C1076      C1292   1.483       .  S
C1076      C1077   1.424       .  A
C1077      H1080   1.083       .  S
C1081      C1309   1.501       .  S
C1081      C1082   1.409       .  A
C1081      C1086   1.424       .  A
C1082      C1083   1.393       .  A
C1082      H1087   1.084       .  S
C1083      C1573   1.456       .  S
C1083      C1084   1.384       .  A
C1084      C1085   1.388       .  A
C1084      H1088   1.085       .  S
C1085      C1453   1.483       .  S
C1085      C1086   1.426       .  A
C1086      H1089   1.083       .  S
C1090      C1340   1.500       .  S
C1090      C1091   1.408       .  A
C1090      C1095   1.426       .  A
C1091      H1096   1.084       .  S
C1092      C1576   1.456       .  S
C1092      C1093   1.383       .  A
C1093      H1097   1.085       .  S
C1094      C1508   1.485       .  S
C1094      C1095   1.426       .  A
C1095      H1098   1.083       .  S
C1099      C1395   1.498       .  S
C1099      C1100   1.407       .  A
C1099      C1104   1.427       .  A
C1100      C1101   1.388       .  A
C1100      H1105   1.084       .  S
C1101      C1561   1.448       .  S
C1101      C1102   1.377       .  A
C1102      C1103   1.385       .  A
C1102      H1106   1.086       .  S
C1103      C1203   1.480       .  S
C1103      C1104   1.426       .  A
C1104      H1107   1.083       .  S
C1108      C1397   1.502       .  S
C1108      C1109   1.408       .  A
C1108      C1113   1.428       .  A
C1109      C1110   1.390       .  A
C1109      H1114   1.084       .  S
C1110      C1111   1.379       .  A
C1111      C1112   1.384       .  A
C1112      C1472   1.484       .  S
C1112      C1113   1.430       .  A
C1113      H1116   1.083       .  S
C1117      C1505   1.498       .  S
C1117      C1118   1.407       .  A
C1117      C1122   1.427       .  A
C1118      C1119   1.389       .  A
C1118      H1123   1.084       .  S
C1119      C1549   1.454       .  S
C1119      C1120   1.379       .  A
C1120      C1121   1.388       .  A
C1120      H1124   1.085       .  S
C1121      C1343   1.482       .  S
C1121      C1122   1.426       .  A
C1122      H1125   1.083       .  S
C1126      C1503   1.502       .  S
C1126      C1127   1.408       .  A
C1126      C1131   1.427       .  A
C1127      C1128   1.392       .  A
C1127      H1132   1.084       .  S
C1128      C1552   1.456       .  S
C1128      C1129   1.380       .  A
C1129      C1130   1.386       .  A
C1129      H1133   1.085       .  S
C1130      C1365   1.483       .  S
C1130      C1131   1.428       .  A
C1131      H1134   1.083       .  S
C1135      C1452   1.500       .  S
C1135      C1136   1.408       .  A
C1135      C1140   1.425       .  A
C1136      C1137   1.391       .  A
C1136      H1141   1.084       .  S
C1137      C1537   1.455       .  S
C1137      C1138   1.384       .  A
C1138      C1139   1.389       .  A
C1138      H1142   1.085       .  S
C1139      C1341   1.485       .  S
C1139      C1140   1.427       .  A
C1140      H1143   1.083       .  S
C1144      C1450   1.497       .  S
C1144      C1145   1.407       .  A
C1144      C1149   1.425       .  A
C1145      C1146   1.390       .  A
C1145      H1150   1.084       .  S
C1146      C3268   1.455   1_455  S
C1146      C1147   1.383       .  A
C1147      C1148   1.390       .  A
C1147      H1151   1.085   1_455  S
C1148      C1288   1.482       .  S
C1148      C1149   1.424       .  A
C1149      H1152   1.083       .  S
C1153      C1286   1.500       .  S
C1153      C1154   1.408       .  A
C1153      C1158   1.426   1_554  A
C1154      C1155   1.389       .  A
C1154      H1159   1.084       .  S
C1155      C3253   1.448       .  S
C1155      C1156   1.379   1_554  A
C1156      C1157   1.386       .  A
C1156      H1160   1.085       .  S
C1157      C1237   1.483       .  S
C1157      C1158   1.429       .  A
C1158      H1161   1.083       .  S
C1162      C1255   1.497       .  S
C1162      C1163   1.409       .  A
C1162      C1167   1.425       .  A
C1163      C1164   1.390       .  A
C1163      H1168   1.084       .  S
C1164      C1528   1.448       .  S
C1164      C1165   1.379       .  A
C1165      C1166   1.387       .  A
C1165      H1169   1.086       .  S
C1166      C1419   1.480       .  S
C1166      C1167   1.424       .  A
C1167      H1170   1.083       .  S
C1171      C1234   1.499       .  S
C1171      C1172   1.409       .  A
C1171      C1176   1.426       .  A
C1172      C1173   1.394       .  A
C1172      H1177   1.083       .  S
C1173      C1516   1.463       .  S
C1173      C1174   1.382       .  A
C1174      C1175   1.388       .  A
C1174      H1178   1.086       .  S
C1175      C1399   1.481       .  S
C1175      C1176   1.424       .  A
C1176      H1179   1.083       .  S
C1180      C1236   1.501       .  S
C1180      C1181   1.410       .  A
C1180      C1185   1.424       .  A
C1181      C2910   1.395       .  A
C1181      H1186   1.083       .  S
C1182      C1513   1.463       .  S
C1182      C2909   1.395   1_455  A
C1182      C1183   1.383       .  A
C1183      C2912   1.386   1_455  A
C1183      H1187   1.085       .  S
C1184      C3018   1.481       .  S
C1184      C2911   1.386       .  A
C1184      C1185   1.426       .  A
C1185      H1188   1.083       .  S
O1189      C1200   1.307       .  A
O1189     Eu1225   2.524       .  S
O1190      C1201   1.295       .  A
O1190     Eu1224   2.496       .  S
O1191      C1202   1.293       .  A
O1191     Eu1197   2.486       .  S
O1192      C1203   1.308       .  A
O1192     Eu1197   2.532       .  S
O1193      C1203   1.279       .  A
O1193     Eu1227   2.392       .  S
O1194      C1202   1.296       .  A
O1194     Eu1226   2.469       .  S
O1195      C1201   1.298       .  A
O1195     Eu1197   2.479       .  S
O1196      C1200   1.281       .  A
O1196     Eu1197   2.400       .  S
Eu1197     O1207   2.355       .  S
Eu1197     O1199   2.367       .  S
Eu1197     O1198   2.325       .  S
Eu1197     O1205   2.359       .  S
O1198     Eu1227   2.368       .  S
O1198     Eu1224   2.343       .  S
O1199     Eu1225   2.325       .  S
O1199     Eu1226   2.344       .  S
H1204      O1205   0.963       .  S
O1205     Eu1226   2.325       .  S
O1205     Eu1224   2.379       .  S
H1206      O1207   0.965       .  S
O1207     Eu1225   2.355       .  S
O1207     Eu1227   2.353       .  S
O1208      C1231   1.309       .  A
O1208     Eu1224   2.542       .  S
O1209      C1232   1.292       .  A
O1209     Eu1225   2.482       .  S
O1210      C1233   1.310       .  A
O1210     Eu1226   2.543       .  S
O1211      C1234   1.292       .  A
O1211     Eu1227   2.481       .  S
O1212      C1235   1.307       .  A
O1212     Eu1227   2.529       .  S
O1213      C1236   1.295       .  A
O1213     Eu1226   2.493       .  S
O1214      C1237   1.309       .  A
O1214     Eu1228   2.539       .  S
O1215      C1238   1.295       .  A
O1215     Eu1228   2.494       .  S
O1216      C1237   1.279       .  A
O1216     Eu1226   2.389       .  S
O1217      C1238   1.296       .  A
O1217     Eu1227   2.468       .  S
O1218      C1233   1.277       .  A
O1218     Eu1224   2.378       .  S
O1219      C1236   1.298       .  A
O1219     Eu1225   2.479       .  S
O1220      C1235   1.280       .  A
O1220     Eu1225   2.400       .  S
O1221      C1234   1.297       .  A
O1221     Eu1224   2.474       .  S
O1222      C1231   1.279       .  A
O1222     Eu1228   2.388       .  S
O1223      C1232   1.298       .  A
O1223     Eu1228   2.476       .  S
Eu1224     O1242   2.327       .  S
Eu1224     O1230   2.348       .  S
Eu1225     O1229   2.367       .  S
Eu1225     O1240   2.356       .  S
Eu1226     O1240   2.379       .  S
Eu1226     O1230   2.344       .  S
Eu1227     O1229   2.323       .  S
Eu1227     O1242   2.358       .  S
Eu1228     O1229   2.342       .  S
Eu1228     O1240   2.324       .  S
Eu1228     O1242   2.380       .  S
Eu1228     O1230   2.347       .  S
C1232      C2701   1.500       .  S
H1239      O1240   0.963       .  S
H1241      O1242   0.963       .  S
O1243      C1254   1.309       .  A
O1243     Eu1279   2.539       .  S
O1244      C1255   1.293       .  A
O1244     Eu1278   2.481       .  S
O1245      C1256   1.311   1_565  A
O1245     Eu1251   2.547       .  S
O1246      C1257   1.295       .  A
O1246     Eu2979   2.493   1_554  S
O1247      C1257   1.298       .  A
O1247     Eu1281   2.477       .  S
O1248     Eu1280   2.384       .  S
O1249      C1255   1.296       .  A
O1249     Eu1251   2.467   1_554  S
O1250      C1254   1.278       .  A
O1250     Eu2979   2.384       .  S
Eu1251     O2974   2.493   1_456  S
Eu1251     O2978   2.384   1_455  S
Eu1251     O2989   2.379   1_456  S
Eu1251     O1253   2.343       .  S
Eu1251     O1252   2.347   1_556  S
Eu1251     O1259   2.323   1_556  S
O1252     Eu3009   2.328   1_455  S
O1252     Eu1278   2.366       .  S
O1253     Eu3007   2.345   1_455  S
H1258      O1259   0.963       .  S
O1259     Eu1278   2.357       .  S
H1260      O1261   0.963       .  S
O1261     Eu2979   2.379   1_554  S
O1261     Eu1279   2.326   1_554  S
O1261     Eu1281   2.363       .  S
O1262      C1285   1.306       .  A
O1263      C1286   1.294   1_556  A
O1264      C1287   1.294   1_556  A
O1264     Eu1280   2.489       .  S
O1265      C3016   1.306       .  A
O1265     Eu1281   2.522       .  S
O1266      C1289   1.291       .  A
O1266     Eu1281   2.473       .  S
O1267      C1290   1.309   1_455  A
O1267     Eu1280   2.538       .  S
O1268      C1291   1.291       .  A
O1268     Eu1282   2.478       .  S
O1269     Eu3010   2.518       .  S
O1270      C1291   1.298       .  A
O1270     Eu1280   2.475   1_554  S
O1271      C1292   1.282       .  A
O1271     Eu1281   2.412       .  S
O1272      C1287   1.298       .  A
O1273      C3018   1.278       .  A
O1274      C1289   1.297       .  A
O1274     Eu1279   2.471   1_554  S
O1275      C1288   1.282       .  A
O1275     Eu1278   2.410       .  S
O1276      C1285   1.282       .  A
O1276     Eu1282   2.407       .  S
O1277      C1286   1.297       .  A
O1277     Eu3010   2.476       .  S
Eu1278     O1296   2.356       .  S
Eu1279     O2981   2.345       .  S
Eu1279     O1283   2.346   1_556  S
Eu1279     O2158   2.383   1_566  S
Eu1280     O1294   2.321   1_556  S
Eu1280     O1284   2.341   1_556  S
Eu1281     O2980   2.328       .  S
Eu1281     O1283   2.367       .  S
Eu1281     O3024   2.355       .  S
Eu1282     O2997   2.518   1_455  S
Eu1282     O3005   2.476   1_455  S
Eu1282     O2147   2.326   1_455  S
Eu1282     O1294   2.359       .  S
Eu1282     O1284   2.365       .  S
O1283     Eu2146   2.326   1_565  S
C1288      O2993   1.306       .  A
C1290      C2912   1.481       .  S
C1290      O3001   1.278       .  A
H1293      O1294   0.963       .  S
O1294     Eu2143   2.383   1_454  S
H1295      O1296   0.965       .  S
O1296     Eu3009   2.355   1_455  S
O1297      C1308   1.305       .  A
O1297     Eu1333   2.515       .  S
O1298      C1309   1.295       .  A
O1298     Eu1332   2.494       .  S
O1299      C1310   1.292       .  A
O1299     Eu1305   2.476       .  S
O1300      C1311   1.308       .  A
O1300     Eu1305   2.530       .  S
O1301      C1311   1.281       .  A
O1301     Eu1335   2.405       .  S
O1302      C1310   1.298       .  A
O1302     Eu1334   2.480       .  S
O1303      C1309   1.298       .  A
O1303     Eu1305   2.478       .  S
O1304      C1308   1.282       .  A
O1304     Eu1305   2.413       .  S
Eu1305     O1315   2.354       .  S
Eu1305     O1307   2.369       .  S
Eu1305     O1306   2.327       .  S
Eu1305     O1313   2.362       .  S
O1306     Eu1335   2.369       .  S
O1306     Eu1332   2.348       .  S
O1307     Eu1333   2.328       .  S
O1307     Eu1334   2.346       .  S
H1312      O1313   0.963       .  S
O1313     Eu1334   2.324       .  S
O1313     Eu1332   2.378       .  S
H1314      O1315   0.965       .  S
O1315     Eu1333   2.356       .  S
O1315     Eu1335   2.357       .  S
O1316      C1339   1.310       .  A
O1316     Eu1332   2.546       .  S
O1317      C1340   1.292       .  A
O1317     Eu1333   2.481       .  S
O1318      C1341   1.309       .  A
O1318     Eu1334   2.536       .  S
O1319      C1342   1.291       .  A
O1319     Eu1335   2.475       .  S
O1320      C1343   1.307       .  A
O1320     Eu1335   2.524       .  S
O1321      C1344   1.293       .  A
O1321     Eu1334   2.485       .  S
O1322      C1345   1.309       .  A
O1322     Eu1336   2.540       .  S
O1323      C1346   1.294       .  A
O1323     Eu1336   2.489       .  S
O1324      C1345   1.280       .  A
O1324     Eu1334   2.396       .  S
O1325      C1346   1.299       .  A
O1325     Eu1335   2.483       .  S
O1326      C1341   1.280       .  A
O1326     Eu1332   2.397       .  S
O1327      C1344   1.297       .  A
O1327     Eu1333   2.472       .  S
O1328      C1343   1.281       .  A
O1328     Eu1333   2.406       .  S
O1329      C1342   1.298       .  A
O1329     Eu1332   2.477       .  S
O1330      C1339   1.278       .  A
O1330     Eu1336   2.385       .  S
O1331      C1340   1.297       .  A
O1331     Eu1336   2.474       .  S
Eu1332     O1350   2.326       .  S
Eu1332     O1338   2.346       .  S
Eu1333     O1337   2.366       .  S
Eu1333     O1348   2.359       .  S
Eu1334     O1348   2.380       .  S
Eu1334     O1338   2.346       .  S
Eu1335     O1337   2.324       .  S
Eu1335     O1350   2.358       .  S
Eu1336     O1337   2.343       .  S
Eu1336     O1348   2.324       .  S
Eu1336     O1350   2.378       .  S
Eu1336     O1338   2.347       .  S
C1344      C2782   1.497       .  S
H1347      O1348   0.963       .  S
H1349      O1350   0.963       .  S
O1351      C1362   1.292       .  A
O1351     Eu1387   2.475       .  S
O1352      C1363   1.311       .  A
O1352     Eu1386   2.545       .  S
O1353      C1364   1.294       .  A
O1353     Eu1359   2.491       .  S
O1354      C1365   1.310       .  A
O1354     Eu1359   2.539       .  S
O1355      C1365   1.279       .  A
O1355     Eu1389   2.392       .  S
O1356      C1364   1.299       .  A
O1356     Eu1388   2.484       .  S
O1357      C1363   1.279       .  A
O1357     Eu1359   2.389       .  S
O1358      C1362   1.297       .  A
O1358     Eu1359   2.474       .  S
Eu1359     O1369   2.322       .  S
Eu1359     O1361   2.345       .  S
Eu1359     O1360   2.346       .  S
Eu1359     O1367   2.378       .  S
O1360     Eu1389   2.348       .  S
O1360     Eu1386   2.345       .  S
O1361     Eu1387   2.370       .  S
O1361     Eu1388   2.328       .  S
H1366      O1367   0.963       .  S
O1367     Eu1388   2.356       .  S
O1367     Eu1386   2.320       .  S
H1368      O1369   0.963       .  S
O1369     Eu1387   2.359       .  S
O1369     Eu1389   2.380       .  S
O1370      C1393   1.294       .  A
O1370     Eu1386   2.486       .  S
O1371      C1394   1.307       .  A
O1371     Eu1387   2.528       .  S
O1372      C1395   1.292       .  A
O1372     Eu1388   2.479       .  S
O1373      C1396   1.309       .  A
O1373     Eu1389   2.541       .  S
O1374      C1397   1.294       .  A
O1374     Eu1389   2.490       .  S
O1375      C1398   1.305       .  A
O1375     Eu1388   2.519       .  S
O1376      C1399   1.307       .  A
O1376     Eu1390   2.525       .  S
O1377      C1400   1.292       .  A
O1377     Eu1390   2.482       .  S
O1378      C1399   1.281       .  A
O1378     Eu1388   2.407       .  S
O1379      C1400   1.298       .  A
O1379     Eu1389   2.478       .  S
O1380      C1395   1.297       .  A
O1380     Eu1386   2.474       .  S
O1381      C1398   1.283       .  A
O1381     Eu1387   2.413       .  S
O1382      C1397   1.299       .  A
O1382     Eu1387   2.486       .  S
O1383      C1396   1.279       .  A
O1383     Eu1386   2.388       .  S
O1384      C1393   1.298       .  A
O1384     Eu1390   2.481       .  S
O1385      C1394   1.281       .  A
O1385     Eu1390   2.405       .  S
Eu1386     O1404   2.380       .  S
Eu1386     O1392   2.345       .  S
Eu1387     O1391   2.326       .  S
Eu1387     O1402   2.354       .  S
Eu1388     O1402   2.358       .  S
Eu1388     O1392   2.368       .  S
Eu1389     O1391   2.346       .  S
Eu1389     O1404   2.326       .  S
Eu1390     O1391   2.368       .  S
Eu1390     O1402   2.356       .  S
Eu1390     O1404   2.360       .  S
Eu1390     O1392   2.327       .  S
H1401      O1402   0.965       .  S
H1403      O1404   0.963       .  S
O1405      C1416   1.307       .  A
O1405     Eu1441   2.531       .  S
O1406      C1417   1.295       .  A
O1406     Eu1440   2.493       .  S
O1407      C1418   1.292       .  A
O1407     Eu1413   2.482       .  S
O1408      C1419   1.306       .  A
O1408     Eu1413   2.524       .  S
O1409      C1419   1.281       .  A
O1409     Eu1443   2.401       .  S
O1410      C1418   1.297       .  A
O1410     Eu1442   2.473       .  S
O1411      C1417   1.298       .  A
O1411     Eu1413   2.481       .  S
O1412      C1416   1.282       .  A
O1412     Eu1413   2.411       .  S
Eu1413     O1423   2.355       .  S
Eu1413     O1415   2.367       .  S
Eu1413     O1414   2.331       .  S
Eu1413     O1421   2.360       .  S
O1414     Eu1443   2.368       .  S
O1414     Eu1440   2.346       .  S
O1415     Eu1441   2.323       .  S
O1415     Eu1442   2.344       .  S
H1420      O1421   0.963       .  S
O1421     Eu1442   2.326       .  S
O1421     Eu1440   2.379       .  S
H1422      O1423   0.965       .  S
O1423     Eu1441   2.355       .  S
O1423     Eu1443   2.357       .  S
O1424      C1447   1.310       .  A
O1424     Eu1440   2.542       .  S
O1425      C1448   1.293       .  A
O1425     Eu1441   2.481       .  S
O1426      C1449   1.308       .  A
O1426     Eu1442   2.533       .  S
O1427      C1450   1.292       .  A
O1427     Eu1443   2.478       .  S
O1428      C1451   1.305       .  A
O1428     Eu1443   2.516       .  S
O1429      C1452   1.294       .  A
O1429     Eu1442   2.488       .  S
O1430      C1453   1.308       .  A
O1430     Eu1444   2.536       .  S
O1431      C1454   1.295       .  A
O1431     Eu1444   2.495       .  S
O1432      C1453   1.280       .  A
O1432     Eu1442   2.394       .  S
O1433      C1454   1.297       .  A
O1433     Eu1443   2.477       .  S
O1434      C1449   1.278       .  A
O1434     Eu1440   2.385       .  S
O1435      C1452   1.297       .  A
O1435     Eu1441   2.477       .  S
O1436      C1451   1.281       .  A
O1436     Eu1441   2.401       .  S
O1437      C1450   1.296       .  A
O1437     Eu1440   2.469       .  S
O1438      C1447   1.279       .  A
O1438     Eu1444   2.391       .  S
O1439      C1448   1.297       .  A
O1439     Eu1444   2.473       .  S
Eu1440     O1458   2.323       .  S
Eu1440     O1446   2.346       .  S
Eu1441     O1445   2.370       .  S
Eu1441     O1456   2.360       .  S
Eu1442     O1456   2.377       .  S
Eu1442     O1446   2.346       .  S
Eu1443     O1445   2.326       .  S
Eu1443     O1458   2.354       .  S
Eu1444     O1445   2.345       .  S
Eu1444     O1456   2.328       .  S
Eu1444     O1458   2.377       .  S
Eu1444     O1446   2.347       .  S
H1455      O1456   0.963       .  S
H1457      O1458   0.963       .  S
O1459      C1470   1.309       .  A
O1459     Eu2359   2.538   1_455  S
O1460      C1471   1.292       .  A
O1461     Eu1467   2.547       .  S
O1462      C1473   1.295       .  A
O1462     Eu1467   2.495       .  S
O1463      C1473   1.298       .  A
O1463     Eu1497   2.479       .  S
O1464      C1472   1.278       .  A
O1464     Eu1496   2.384       .  S
O1465      C1471   1.298       .  A
O1465     Eu1467   2.477       .  S
O1466      C1470   1.279       .  A
O1466     Eu1467   2.387       .  S
Eu1467     O1477   2.381       .  S
Eu1467     O1468   2.345       .  S
O1468     Eu1497   2.328       .  S
O1469     Eu3223   2.347   1_455  S
O1469     Eu1496   2.344       .  S
H1474      O1475   0.963       .  S
O1475     Eu1496   2.380       .  S
O1475     Eu1494   2.358       .  S
H1476      O1477   0.963       .  S
O1477     Eu2359   2.324   1_455  S
O1477     Eu1497   2.360       .  S
O1478      C1501   1.307   1_455  A
O1478     Eu1494   2.529       .  S
O1479      C1502   1.294       .  A
O1479     Eu1495   2.492       .  S
O1480      C1503   1.293       .  A
O1480     Eu1496   2.487       .  S
O1481      C1504   1.306       .  A
O1481     Eu1497   2.524       .  S
O1482      C1505   1.291       .  A
O1482     Eu3225   2.474       .  S
O1483      C1506   1.310       .  A
O1483     Eu3224   2.541       .  S
O1484      C1507   1.292       .  A
O1484     Eu1498   2.481       .  S
O1485     Eu1498   2.526       .  S
O1486      C1507   1.296       .  A
O1486     Eu3224   2.470       .  S
O1487      C1508   1.282       .  A
O1487     Eu3225   2.411       .  S
O1488      C1503   1.300       .  A
O1488     Eu1494   2.488       .  S
O1489      C1506   1.279       .  A
O1489     Eu1495   2.389       .  S
O1490      C1505   1.298       .  A
O1491      C1504   1.281       .  A
O1492      C1501   1.282       .  A
O1492     Eu3226   2.406       .  S
O1493      C1502   1.299       .  A
O1493     Eu1498   2.486       .  S
Eu1494     O1512   2.359       .  S
Eu1494     O1500   2.326       .  S
Eu1495     O2323   2.538   1_565  S
Eu1495     O3197   2.347       .  S
Eu1495     O2341   2.324   1_565  S
Eu1495     O1499   2.345       .  S
Eu1495     O1510   2.380       .  S
Eu1496     O3211   2.541   1_455  S
Eu1496     O3214   2.470   1_455  S
Eu1496     O3238   2.322   1_455  S
Eu1496     O1500   2.343       .  S
Eu1497     O3210   2.474   1_455  S
Eu1497     O3215   2.411       .  S
Eu1497     O2363   2.369   1_455  S
Eu1498     O3220   2.406       .  S
Eu1498     O1499   2.327       .  S
Eu1498     O1510   2.358       .  S
Eu1498     O3240   2.358       .  S
Eu1498     O3228   2.367       .  S
O1499     Eu2361   2.369   1_565  S
O1500     Eu3226   2.367   1_455  S
C1501      C2667   1.483       .  S
H1509      O1510   0.963       .  S
O1510     Eu3224   2.322       .  S
O1512     Eu3226   2.358   1_455  S
C1513      C1514   1.409       .  A
C1513      C1518   1.405       .  A
C1514      C1515   1.389       .  A
C1514      H1523   1.084       .  S
C1515      C1516   1.405       .  A
C1515      S1519   1.805       .  S
C1516      C1517   1.408       .  A
C1517      C1518   1.389       .  A
C1517      H1524   1.084       .  S
C1518      S1520   1.804       .  S
S1519      H1522   1.406       .  S
S1520      H1521   1.405       .  S
C1525      C2883   1.448   1_455  S
C1525      C3254   1.395   1_455  A
C1525      C1530   1.411       .  A
C1526      C3253   1.395       .  A
C1526      C3255   1.388       .  A
C1526      H1535   1.085       .  S
C1527      C3254   1.388   1_455  A
C1527      C1528   1.414       .  A
C1527      S1531   1.810   1_455  S
C1528      C1529   1.397       .  A
C1529      C1530   1.389       .  A
C1529      H1536   1.084       .  S
C1530      S1532   1.806   1_554  S
S1531      H1534   1.401   1_655  S
S1532      H1533   1.404   1_556  S
C1537      C1538   1.403       .  A
C1537      C1542   1.406       .  A
C1538      C1539   1.391       .  A
C1538      H1547   1.085       .  S
C1539      C1540   1.407       .  A
C1539      S1543   1.805       .  S
C1540      C2874   1.455       .  S
C1540      C1541   1.403       .  A
C1541      C1542   1.389       .  A
C1541      H1548   1.085       .  S
C1542      S1544   1.804       .  S
S1543      H1546   1.406       .  S
S1544      H1545   1.406       .  S
C1549      C1554   1.416       .  A
C1550      C1551   1.387   1_545  A
C1550      H1559   1.084       .  S
C1551      C1552   1.416       .  A
C1551      S1555   1.805       .  S
C1552      C1553   1.395       .  A
C1553      H1560   1.084       .  S
C1554      S1556   1.807       .  S
S1555      H1558   1.407       .  S
S1556      H1557   1.407       .  S
C1561      C1562   1.393       .  A
C1561      C1566   1.414       .  A
C1562      C1563   1.387       .  A
C1562      H1571   1.084       .  S
C1563      C1564   1.414       .  A
C1563      S1567   1.805       .  S
C1564      C1565   1.394       .  A
C1565      C1566   1.387       .  A
C1565      H1572   1.084       .  S
C1566      S1568   1.807       .  S
S1568      H1569   1.406       .  S
C1573      C1574   1.402       .  A
C1573      C1578   1.408       .  A
C1574      C1575   1.391       .  A
C1574      H1583   1.085       .  S
C1575      C1576   1.408       .  A
C1575      S1579   1.805       .  S
C1576      C1577   1.402       .  A
C1577      C1578   1.390       .  A
C1577      H1584   1.085       .  S
C1578      S1580   1.805       .  S
S1579      H1582   1.406       .  S
S1580      H1581   1.406       .  S
C1585      C1586   1.402       .  A
C1585      C1590   1.408       .  A
C1586      C1587   1.391       .  A
C1586      H3323   1.085       .  S
C1587      C1588   1.410       .  A
C1587      S3319   1.806       .  S
C1588      C1589   1.403       .  A
C1589      C1590   1.390       .  A
C1589      H1596   1.085       .  S
C1590      S1592   1.804       .  S
S1591      C3315   1.806   1_455  S
S1591      H3322   1.406   1_455  S
S1592      H1593   1.406       .  S
H1594      S3319   1.406       .  S
H1595      C3314   1.085   1_455  S
C1597      C1598   1.397       .  A
C1597      C1602   1.411       .  A
C1598      C1599   1.388       .  A
C1598      H1607   1.084       .  S
C1599      C1600   1.412       .  A
C1599      S1603   1.806       .  S
C1600      C1601   1.396       .  A
C1601      C1602   1.387       .  A
C1601      H1608   1.085       .  S
C1602      S1604   1.806       .  S
S1603      H1606   1.404       .  S
S1604      H1605   1.405       .  S
C1610      C1611   1.389   1_545  A
C1611      C1612   1.414       .  A
C1611      S1615   1.806   1_565  S
C1612      C1613   1.393       .  A
C1613      C1614   1.385       .  A
C1613      H1620   1.084       .  S
S1615      H1618   1.406   1_545  S
S1616      H1617   1.406       .  S
C1621      C1622   1.396       .  A
C1621      C1626   1.412       .  A
C1622      C1623   1.387       .  A
C1622      H1631   1.085       .  S
C1623      C1624   1.411       .  A
C1623      S1627   1.806       .  S
C1624      C1625   1.397       .  A
C1625      C1626   1.389       .  A
C1625      H1632   1.084       .  S
C1626      S1628   1.807       .  S
S1627      H1630   1.405       .  S
S1628      H1629   1.404       .  S
C1633      C1634   1.408       .  A
C1633      C1638   1.405       .  A
C1634      C1635   1.388       .  A
C1634      H1643   1.084       .  S
C1635      C1636   1.404       .  A
C1635      S1639   1.805       .  S
C1636      C1637   1.407       .  A
C1637      C1638   1.388       .  A
C1637      H1644   1.084       .  S
C1638      S1640   1.804       .  S
S1639      H1642   1.406       .  S
S1640      H1641   1.406       .  S
C1645      C1646   1.397       .  A
C1645      C1650   1.412       .  A
C1646      C1647   1.389       .  A
C1646      H1655   1.084       .  S
C1647      C1648   1.411       .  A
C1647      S1651   1.806       .  S
C1648      C1649   1.397       .  A
C1649      C1650   1.388       .  A
C1649      H1656   1.084       .  S
C1650      S1652   1.806       .  S
S1651      H1654   1.405       .  S
S1652      H1653   1.405       .  S
C1657      C1658   1.401       .  A
C1657      C1662   1.409       .  A
C1658      C1659   1.388       .  A
C1658      H1667   1.085       .  S
C1659      C1660   1.409       .  A
C1659      S1663   1.806       .  S
C1660      C1661   1.402       .  A
C1661      C1662   1.390       .  A
C1661      H1668   1.085       .  S
C1662      S1664   1.804       .  S
S1663      H1666   1.406       .  S
S1664      H1665   1.405       .  S
C1669      C1670   1.397       .  A
C1669      C1674   1.412       .  A
C1670      C1671   1.388       .  A
C1670      H1679   1.084       .  S
C1671      C1672   1.412       .  A
C1671      S1675   1.806       .  S
C1672      C1673   1.397       .  A
C1673      C1674   1.389       .  A
C1673      H1680   1.084       .  S
C1674      S1676   1.806       .  S
S1675      H1678   1.405       .  S
S1676      H1677   1.405       .  S
C1681      C1682   1.404       .  A
C1681      C1686   1.404       .  A
C1682      C1683   1.391       .  A
C1682      H1691   1.085       .  S
C1683      C1684   1.405       .  A
C1683      S1687   1.805       .  S
C1684      C1685   1.405       .  A
C1685      C1686   1.388       .  A
C1685      H1692   1.085   1_554  S
C1686      S1688   1.805   1_554  S
S1687      H1690   1.402       .  S
S1688      H1689   1.402       .  S
C1693      C2631   1.458   1_455  S
C1693      C1694   1.402       .  A
C1693      C3426   1.409   1_455  A
C1694      C1695   1.392       .  A
C1694      H1703   1.084       .  S
C1695      C1696   1.410       .  A
C1695      S1699   1.805       .  S
C1696      C1697   1.401       .  A
C1697      C3426   1.388   1_455  A
C1697      H1704   1.085       .  S
C1698      C3421   1.409       .  A
C1698      C3425   1.388       .  A
C1698      S1700   1.806       .  S
S1699      H1702   1.406       .  S
S1700      H1701   1.407       .  S
C1705      C1706   1.402       .  A
C1705      C1710   1.408       .  A
C1706      C1707   1.390       .  A
C1706      H1715   1.085       .  S
C1707      C1708   1.408       .  A
C1707      S1711   1.805       .  S
C1708      C1709   1.402       .  A
C1709      C1710   1.391       .  A
C1709      H1716   1.085       .  S
C1710      S1712   1.804       .  S
S1711      H1714   1.406       .  S
S1712      H1713   1.407       .  S
C1717      C1718   1.394       .  A
C1717      C1722   1.416       .  A
C1718      C1719   1.387       .  A
C1718      H1727   1.084       .  S
C1719      C1720   1.416       .  A
C1719      S1723   1.807       .  S
C1720      C2604   1.455       .  S
C1720      C1721   1.394       .  A
C1721      C1722   1.388       .  A
C1721      H1728   1.084       .  S
C1722      S1724   1.807       .  S
S1723      H3454   1.407       .  S
S1724      H1725   1.407       .  S
H1726      S3451   1.407   1_455  S
C1729      C2226   1.497       .  S
C1729      C2594   1.408       .  A
C1729      C2598   1.426       .  A
C1730      C2593   1.408   1_545  A
C1730      C1731   1.391       .  A
C1730      H2599   1.084   1_545  S
C1731      C2581   1.454       .  S
C1731      C1732   1.378       .  A
C1732      C1733   1.387       .  A
C1732      H1736   1.086       .  S
C1733      C2064   1.478       .  S
C1733      C1734   1.424       .  A
C1734      C2593   1.426   1_545  A
C1734      H1737   1.083       .  S
H1735      C2594   1.084       .  S
C1738      C2257   1.499       .  S
C1738      C1739   1.408       .  A
C1738      C1743   1.425       .  A
C1739      C1740   1.392       .  A
C1739      H1744   1.084       .  S
C1740      C1741   1.380       .  A
C1741      C1742   1.385       .  A
C1742      C2334   1.481       .  S
C1742      C1743   1.427       .  A
C1743      H1746   1.083       .  S
C1747      C2930   1.498       .  S
C1747      C1748   1.409       .  A
C1747      C1752   1.425       .  A
C1748      C1749   1.391       .  A
C1748      H1753   1.084       .  S
C1749      C2572   1.456       .  S
C1749      C1750   1.382       .  A
C1750      C1751   1.390       .  A
C1750      H1754   1.085       .  S
C1751      C2262   1.483       .  S
C1751      C1752   1.425       .  A
C1752      H1755   1.083       .  S
C1756      C2102   1.499       .  S
C1756      C1757   1.409       .  A
C1756      C1761   1.422       .  A
C1757      C1758   1.393       .  A
C1757      H1762   1.084       .  S
C1758      C2569   1.455       .  S
C1758      C1759   1.384       .  A
C1759      C1760   1.387       .  A
C1759      H1763   1.085       .  S
C1760      C2118   1.480       .  S
C1760      C1761   1.425       .  A
C1761      H1764   1.083       .  S
C1765      C2371   1.497       .  S
C1765      C1766   1.409       .  A
C1765      C1770   1.425       .  A
C1766      C1767   1.391       .  A
C1767      C1768   1.382       .  A
C1768      C1769   1.390       .  A
C1768      H1772   1.085       .  S
C1769      C2172   1.484       .  S
C1769      C1770   1.425       .  A
C1770      H1773   1.083       .  S
C1774      C2337   1.502       .  S
C1774      C1775   1.409       .  A
C1774      C1779   1.424       .  A
C1775      C1776   1.395       .  A
C1775      H1780   1.084       .  S
C1776      C2560   1.457       .  S
C1776      C1777   1.385       .  A
C1777      C1778   1.387       .  A
C1777      H1781   1.085       .  S
C1778      C2260   1.481       .  S
C1778      C1779   1.426       .  A
C1779      H1782   1.083       .  S
C1783      C2121   1.501       .  S
C1783      C1784   1.409       .  A
C1783      C1788   1.424   1_554  A
C1784      C1785   1.393       .  A
C1784      H1789   1.084       .  S
C1785      C2548   1.454       .  S
C1785      C1786   1.384   1_554  A
C1786      C1787   1.387       .  A
C1786      H1790   1.086       .  S
C1787      C2095   1.482       .  S
C1787      C1788   1.426       .  A
C1788      H1791   1.083       .  S
C1792      C2155   1.500       .  S
C1792      C1793   1.428       .  A
C1792      C1797   1.407       .  A
C1793      C1794   1.428       .  A
C1793      H1798   1.083       .  S
C1794      C2280   1.487       .  S
C1794      C1795   1.390       .  A
C1795      C1796   1.382       .  A
C1795      H1799   1.085       .  S
C1796      C2545   1.453       .  S
C1796      C1797   1.389       .  A
C1797      H1800   1.084       .  S
C1801      C2174   1.500       .  S
C1801      C1802   1.427       .  A
C1801      C1806   1.407       .  A
C1802      C1803   1.426       .  A
C1802      H1807   1.083       .  S
C1804      C1805   1.380       .  A
C1804      H1808   1.085       .  S
C1805      C2536   1.451       .  S
C1806      H1809   1.084       .  S
C1810      C3074   1.502       .  S
C1810      C1811   1.408       .  A
C1810      C1815   1.427       .  A
C1811      C1812   1.391       .  A
C1811      H1816   1.084       .  S
C1812      C2533   1.450       .  S
C1812      C1813   1.381       .  A
C1813      C1814   1.386       .  A
C1813      H1817   1.085       .  S
C1814      C2311   1.484       .  S
C1814      C1815   1.429       .  A
C1815      H1818   1.083       .  S
C1819      C2282   1.498       .  S
C1819      C1820   1.408       .  A
C1819      C1824   1.426       .  A
C1820      C1821   1.390       .  A
C1820      H1825   1.084       .  S
C1821      C2524   1.455       .  S
C1821      C1822   1.381       .  A
C1822      C1823   1.388       .  A
C1822      H1826   1.085       .  S
C1823      C2149   1.483       .  S
C1823      C1824   1.425       .  A
C1824      H1827   1.083       .  S
C1828      C2318   1.502       .  S
C1828      C2693   1.425       .  A
C1828      C2697   1.408       .  A
C1829      C2692   1.425       .  A
C1829      C1830   1.427       .  A
C1829      H1834   1.083       .  S
C1830      C2203   1.482       .  S
C1830      C1831   1.386       .  A
C1831      C1832   1.384       .  A
C1831      H1835   1.085       .  S
C1832      C2521   1.455       .  S
C1832      C1833   1.393       .  A
C1833      C2692   1.408       .  A
C1833      H2700   1.084       .  S
H1836      C2697   1.084       .  S
C1837      C1838   1.407       .  A
C1837      C1842   1.428       .  A
C1838      C1839   1.389       .  A
C1838      H1843   1.084       .  S
C1839      C2512   1.449       .  S
C1839      C1840   1.378       .  A
C1840      C1841   1.388       .  A
C1840      H1844   1.085       .  S
C1841      C2258   1.484       .  S
C1841      C1842   1.428       .  A
C1842      H1845   1.083       .  S
C1846      C2065   1.503       .  S
C1846      C1847   1.408       .  A
C1846      C1851   1.426       .  A
C1847      C2712   1.391   1_545  A
C1847      H1852   1.084       .  S
C1848      C2509   1.449       .  S
C1848      C2711   1.391       .  A
C1848      C1849   1.381       .  A
C1849      C2714   1.386       .  A
C1849      H1853   1.085       .  S
C1850      C2984   1.483       .  S
C1850      C2713   1.386   1_545  A
C1850      C1851   1.429       .  A
C1851      H1854   1.083       .  S
C1855      C2228   1.502       .  S
C1855      C1856   1.409       .  A
C1855      C1860   1.426       .  A
C1856      C1857   1.394       .  A
C1856      H1861   1.083       .  S
C1857      C2497   1.461       .  S
C1857      C1858   1.382       .  A
C1858      C1859   1.386       .  A
C1858      H1862   1.085       .  S
C1859      C2370   1.483       .  S
C1859      C1860   1.427       .  A
C1860      H1863   1.083       .  S
C1864      C2264   1.500       .  S
C1864      C1865   1.408       .  A
C1865      H1870   1.083       .  S
C1866      C2500   1.459       .  S
C1866      C1867   1.381       .  A
C1867      C1868   1.387       .  A
C1867      H1871   1.086       .  S
C1868      C2099   1.481       .  S
C1868      C1869   1.425       .  A
C1873      C2335   1.501       .  S
C1873      C1874   1.407       .  A
C1873      C1878   1.428       .  A
C1874      C1875   1.390       .  A
C1874      H1879   1.084       .  S
C1875      C2488   1.450       .  S
C1875      C1876   1.380       .  A
C1876      C1877   1.388       .  A
C1876      H1880   1.085       .  S
C1877      C2175   1.484       .  S
C1877      C1878   1.427       .  A
C1878      H1881   1.082       .  S
C1882      C2366   1.503       .  S
C1882      C1883   1.428       .  A
C1882      C1887   1.408       .  A
C1883      C1884   1.430       .  A
C1883      H1888   1.083       .  S
C1884      C2227   1.485       .  S
C1884      C1885   1.386       .  A
C1885      C1886   1.380       .  A
C1885      H1889   1.085       .  S
C1886      C2485   1.448       .  S
C1886      C1887   1.390       .  A
C1887      H1890   1.084       .  S
C1891      C2151   1.500       .  S
C1891      C1892   1.408       .  A
C1891      C1896   1.426   1_554  A
C1892      C1893   1.390       .  A
C1892      H1897   1.084       .  S
C1893      C2473   1.449       .  S
C1893      C1894   1.379   1_554  A
C1894      C1895   1.383       .  A
C1894      H1898   1.086       .  S
C1895      C2097   1.479       .  S
C1895      C1896   1.427       .  A
C1896      H1899   1.083       .  S
C1900      C2153   1.494       .  S
C1900      C1901   1.406       .  A
C1900      C1905   1.425       .  A
C1901      C1902   1.387       .  A
C1901      H1906   1.084       .  S
C1902      C2476   1.449       .  S
C1902      C1903   1.377       .  A
C1903      C1904   1.388       .  A
C1903      H1907   1.085       .  S
C1904      C2315   1.480       .  S
C1904      C1905   1.425       .  A
C1905      H1908   1.083       .  S
C1909      C2206   1.498       .  S
C1909      C1910   1.406       .  A
C1909      C1914   1.427       .  A
C1910      C1911   1.389       .  A
C1910      H1915   1.084       .  S
C1911      C2461   1.448       .  S
C1911      C1912   1.379       .  A
C1912      C1913   1.388       .  A
C1912      H1916   1.086       .  S
C1913      C2368   1.482       .  S
C1913      C1914   1.426       .  A
C1914      H1917   1.082       .  S
C1918      C1919   1.407       .  A
C1918      C1923   1.424       .  A
C1919      C1920   1.389       .  A
C1919      H1924   1.084       .  S
C1920      C2464   1.447       .  S
C1920      C1921   1.380       .  A
C1921      C1922   1.386       .  A
C1921      H1925   1.085       .  S
C1922      C2313   1.479       .  S
C1922      C1923   1.426       .  A
C1923      H1926   1.083       .  S
C1927      C2281   1.502       .  S
C1928      C1929   1.394       .  A
C1929      C2449   1.459       .  S
C1929      C1930   1.385       .  A
C1930      C1931   1.388       .  A
C1930      H1934   1.085       .  S
C1931      C2209   1.485       .  S
C1931      C1932   1.427       .  A
C1932      H1935   1.083   1_655  S
C1936      C2312   1.499       .  S
C1936      C1937   1.408       .  A
C1936      C1941   1.425       .  A
C1937      C1938   1.392       .  A
C1937      H1942   1.084       .  S
C1938      C3316   1.460       .  S
C1938      C1939   1.383       .  A
C1939      C1940   1.390       .  A
C1939      H2807   1.085       .  S
C1940      C2156   1.483       .  S
C1940      C1941   1.424       .  A
C1941      H1944   1.083       .  S
H1943      C2803   1.085   1_545  S
C1945      C2173   1.501       .  S
C1945      C1946   1.409       .  A
C1945      C1950   1.424       .  A
C1946      C1947   1.393       .  A
C1946      H1951   1.084       .  S
C1947      C2437   1.456       .  S
C1947      C1948   1.384       .  A
C1948      C1949   1.388       .  A
C1948      H1952   1.085       .  S
C1949      C2317   1.483       .  S
C1949      C1950   1.426       .  A
C1950      H1953   1.083       .  S
C1954      C2204   1.500       .  S
C1954      C1955   1.408       .  A
C1954      C1959   1.426       .  A
C1955      C2820   1.391   1_545  A
C1955      H1960   1.084       .  S
C1956      C2440   1.456       .  S
C1956      C2819   1.391       .  A
C1956      C1957   1.383       .  A
C1957      C2822   1.390       .  A
C1957      H1961   1.085       .  S
C1958      C2372   1.485       .  S
C1958      C2821   1.390   1_545  A
C1958      C1959   1.426       .  A
C1959      H1962   1.083       .  S
C1963      C2259   1.498       .  S
C1963      C1964   1.407       .  A
C1963      C1968   1.427       .  A
C1964      C1965   1.388       .  A
C1964      H1969   1.084       .  S
C1965      C2425   1.448       .  S
C1965      C1966   1.377       .  A
C1966      C1967   1.385       .  A
C1966      H1970   1.086       .  S
C1967      C2067   1.480       .  S
C1967      C1968   1.426       .  A
C1968      H1971   1.083       .  S
C1972      C2261   1.502       .  S
C1972      C1973   1.408       .  A
C1972      C1977   1.428       .  A
C1973      C1974   1.390       .  A
C1973      H1978   1.084       .  S
C1974      C3292   1.449       .  S
C1974      C1975   1.379       .  A
C1975      C1976   1.384       .  A
C1975      H2843   1.085       .  S
C1976      C2336   1.484       .  S
C1976      C1977   1.430       .  A
C1977      H1980   1.083       .  S
H1979      C2839   1.085   1_545  S
C1981      C2369   1.498       .  S
C1981      C1982   1.407       .  A
C1981      C1986   1.427       .  A
C1982      C1983   1.389       .  A
C1982      H1987   1.084       .  S
C1983      C2413   1.454       .  S
C1983      C1984   1.379       .  A
C1984      C1985   1.388       .  A
C1984      H1988   1.085       .  S
C1985      C2207   1.482       .  S
C1985      C1986   1.426       .  A
C1986      H1989   1.083       .  S
C1990      C2367   1.502       .  S
C1990      C1991   1.408       .  A
C1990      C1995   1.427       .  A
C1991      C1992   1.392       .  A
C1991      H1996   1.084       .  S
C1992      C2416   1.456       .  S
C1992      C1993   1.380       .  A
C1993      C1994   1.386       .  A
C1993      H1997   1.085       .  S
C1994      C2229   1.483       .  S
C1994      C1995   1.428       .  A
C1995      H1998   1.083       .  S
C1999      C2316   1.500       .  S
C1999      C2000   1.408       .  A
C1999      C2004   1.425       .  A
C2000      C2001   1.391       .  A
C2000      H2005   1.084       .  S
C2001      C2401   1.455       .  S
C2001      C2002   1.384       .  A
C2002      C2003   1.389       .  A
C2002      H2006   1.085       .  S
C2003      C2205   1.485       .  S
C2003      C2004   1.427       .  A
C2004      H2007   1.083       .  S
C2008      C2314   1.497       .  S
C2008      C2009   1.407       .  A
C2008      C2013   1.425       .  A
C2009      C2010   1.390       .  A
C2009      H2014   1.084       .  S
C2010      C2011   1.383       .  A
C2011      C2012   1.390       .  A
C2011      H2015   1.085       .  S
C2012      C2152   1.482       .  S
C2012      C2013   1.424       .  A
C2013      H2016   1.083       .  S
C2017      C2150   1.500       .  S
C2017      C2018   1.408       .  A
C2017      C2022   1.426   1_554  A
C2018      C2019   1.389       .  A
C2018      H2023   1.084       .  S
C2019      C2020   1.379   1_554  A
C2020      C2021   1.386       .  A
C2020      H2024   1.085       .  S
C2021      C2101   1.483       .  S
C2021      C2022   1.429       .  A
C2022      H2025   1.083       .  S
C2026      C2119   1.497       .  S
C2026      C2027   1.409       .  A
C2026      C2031   1.425       .  A
C2027      C2028   1.390       .  A
C2027      H2032   1.084       .  S
C2028      C2392   1.448       .  S
C2028      C2029   1.379       .  A
C2029      C2030   1.387       .  A
C2029      H2033   1.086       .  S
C2030      C2283   1.480       .  S
C2030      C2031   1.424       .  A
C2031      H2034   1.083       .  S
C2035      C2098   1.499       .  S
C2035      C2036   1.409       .  A
C2035      C2040   1.426       .  A
C2036      C2037   1.394       .  A
C2036      H2041   1.083       .  S
C2037      C2380   1.463       .  S
C2037      C2038   1.382       .  A
C2038      C2039   1.388       .  A
C2038      H2042   1.086       .  S
C2039      C2263   1.481       .  S
C2039      C2040   1.424       .  A
C2040      H2043   1.083       .  S
C2044      C2100   1.501       .  S
C2044      C2045   1.410       .  A
C2044      C2049   1.424       .  A
C2045      H2050   1.083       .  S
C2046      C2377   1.463       .  S
C2046      C2047   1.383       .  A
C2047      H2051   1.085       .  S
C2048      C2049   1.426       .  A
C2049      H2052   1.083       .  S
O2053      C2064   1.307       .  A
O2053     Eu2089   2.524       .  S
O2054      C2065   1.295       .  A
O2054     Eu2088   2.496       .  S
O2055      C2066   1.293       .  A
O2055     Eu2061   2.486       .  S
O2056      C2067   1.308       .  A
O2056     Eu2061   2.532       .  S
O2057      C2067   1.279       .  A
O2057     Eu2091   2.392       .  S
O2058      C2066   1.296       .  A
O2058     Eu2090   2.469       .  S
O2059      C2065   1.298       .  A
O2059     Eu2061   2.479       .  S
O2060      C2064   1.281       .  A
O2060     Eu2061   2.400       .  S
Eu2061     O2071   2.355       .  S
Eu2061     O2063   2.367       .  S
Eu2061     O2062   2.325       .  S
Eu2061     O2069   2.359       .  S
O2062     Eu2091   2.368       .  S
O2062     Eu2088   2.343       .  S
O2063     Eu2089   2.325       .  S
O2063     Eu2090   2.344       .  S
C2066      C2611   1.498   1_545  S
H2068      O2069   0.963       .  S
O2069     Eu2090   2.325       .  S
O2069     Eu2088   2.379       .  S
H2070      O2071   0.965       .  S
O2071     Eu2089   2.355       .  S
O2071     Eu2091   2.353       .  S
O2072      C2095   1.309       .  A
O2072     Eu2088   2.542       .  S
O2073      C2096   1.292   1_655  A
O2073     Eu2089   2.482       .  S
O2074      C2097   1.310       .  A
O2074     Eu2090   2.543       .  S
O2075      C2098   1.292       .  A
O2075     Eu2091   2.481       .  S
O2076      C2099   1.307       .  A
O2076     Eu2091   2.529       .  S
O2077      C2100   1.295       .  A
O2077     Eu2090   2.493       .  S
O2078      C2101   1.309       .  A
O2078     Eu2092   2.539       .  S
O2079      C2102   1.295       .  A
O2079     Eu2092   2.494       .  S
O2080      C2101   1.279       .  A
O2080     Eu2090   2.389       .  S
O2081      C2102   1.296       .  A
O2081     Eu2091   2.468       .  S
O2082      C2097   1.277       .  A
O2082     Eu2088   2.378       .  S
O2083      C2100   1.298       .  A
O2083     Eu2089   2.479       .  S
O2084      C2099   1.280       .  A
O2084     Eu2089   2.400       .  S
O2085      C2098   1.297       .  A
O2085     Eu2088   2.474       .  S
O2086      C2095   1.279       .  A
O2086     Eu2092   2.388       .  S
O2087      C2096   1.298   1_655  A
O2087     Eu2092   2.476       .  S
Eu2088     O2106   2.327       .  S
Eu2088     O2094   2.348       .  S
Eu2089     O2093   2.367       .  S
Eu2089     O2104   2.356       .  S
Eu2090     O2104   2.379       .  S
Eu2090     O2094   2.344       .  S
Eu2091     O2093   2.323       .  S
Eu2091     O2106   2.358       .  S
Eu2092     O2093   2.342       .  S
Eu2092     O2104   2.324       .  S
Eu2092     O2106   2.380       .  S
Eu2092     O2094   2.347       .  S
H2103      O2104   0.963       .  S
H2105      O2106   0.963       .  S
O2107      C2118   1.309       .  A
O2107     Eu2143   2.539       .  S
O2108      C2119   1.293       .  A
O2108     Eu2142   2.481       .  S
O2109      C2120   1.311       .  A
O2109     Eu2115   2.547       .  S
O2110      C2121   1.295       .  A
O2111      C2121   1.298       .  A
O2111     Eu2145   2.477       .  S
O2112      C2984   1.278       .  A
O2112     Eu2144   2.384       .  S
O2113      C2119   1.296       .  A
O2113     Eu2115   2.467   1_554  S
O2114      C2118   1.278       .  A
Eu2115     O2117   2.343       .  S
Eu2115     O2116   2.347   1_556  S
Eu2115     O2123   2.323   1_556  S
O2116     Eu2142   2.366       .  S
O2117     Eu3008   2.345       .  S
C2120      C2714   1.483       .  S
C2120      O2976   1.278       .  A
H2122      O2123   0.963       .  S
O2123     Eu3008   2.378   1_554  S
O2123     Eu2142   2.357       .  S
H2124      O2125   0.963       .  S
O2125     Eu2143   2.326   1_554  S
O2125     Eu2145   2.363       .  S
O2126      C2149   1.306       .  A
O2126     Eu3006   2.520   1_545  S
O2127      C2150   1.294   1_556  A
O2127     Eu3007   2.492   1_545  S
O2128      C2151   1.294   1_556  A
O2128     Eu2144   2.489       .  S
O2129     Eu2145   2.522   1_455  S
O2130      C2153   1.291       .  A
O2130     Eu2145   2.473       .  S
O2131      C2154   1.309       .  A
O2131     Eu2144   2.538       .  S
O2132      C2155   1.291       .  A
O2132     Eu2146   2.478       .  S
O2133      C3020   1.305       .  A
O2134      C2155   1.298       .  A
O2134     Eu2144   2.475   1_554  S
O2135      C2156   1.282       .  A
O2135     Eu2145   2.412       .  S
O2136      C2151   1.298       .  A
O2136     Eu3006   2.478   1_545  S
O2137     Eu3007   2.388   1_545  S
O2138      C2153   1.297       .  A
O2138     Eu2143   2.471   1_554  S
O2139      C2152   1.282       .  A
O2139     Eu2142   2.410       .  S
O2140      C2149   1.282       .  A
O2140     Eu2146   2.407       .  S
O2141      C2150   1.297       .  A
Eu2142     O2990   2.520       .  S
Eu2142     O3000   2.478       .  S
Eu2142     O2160   2.356       .  S
Eu2142     O3012   2.327       .  S
Eu2143     O2991   2.492       .  S
Eu2143     O3001   2.388       .  S
Eu2143     O2147   2.346   1_556  S
Eu2144     O2981   2.345   1_545  S
Eu2144     O2987   2.378   1_546  S
Eu2144     O2158   2.321   1_556  S
Eu2144     O2148   2.341   1_556  S
Eu2145     O2147   2.367       .  S
Eu2146     O2158   2.359       .  S
Eu2146     O3024   2.356   1_545  S
Eu2146     O2148   2.365       .  S
O2148     Eu3006   2.327   1_545  S
C2156      O2997   1.305       .  A
H2157      O2158   0.963       .  S
H2159      O2160   0.965       .  S
O2160     Eu3010   2.356       .  S
O2161      C2172   1.305       .  A
O2161     Eu2197   2.515       .  S
O2162      C2173   1.295       .  A
O2162     Eu2196   2.494       .  S
O2163      C2174   1.292       .  A
O2163     Eu2169   2.476       .  S
O2164      C2175   1.308       .  A
O2164     Eu2169   2.530       .  S
O2165      C2175   1.281       .  A
O2165     Eu2199   2.405       .  S
O2166      C2174   1.298       .  A
O2166     Eu2198   2.480       .  S
O2167      C2173   1.298       .  A
O2167     Eu2169   2.478       .  S
O2168      C2172   1.282       .  A
O2168     Eu2169   2.413       .  S
Eu2169     O2179   2.354       .  S
Eu2169     O2171   2.369       .  S
Eu2169     O2170   2.327       .  S
Eu2169     O2177   2.362       .  S
O2170     Eu2199   2.369       .  S
O2170     Eu2196   2.348       .  S
O2171     Eu2197   2.328       .  S
O2171     Eu2198   2.346       .  S
H2176      O2177   0.963       .  S
O2177     Eu2198   2.324       .  S
O2177     Eu2196   2.378       .  S
H2178      O2179   0.965       .  S
O2179     Eu2197   2.356       .  S
O2179     Eu2199   2.357       .  S
O2180      C2203   1.310       .  A
O2180     Eu2196   2.546       .  S
O2181      C2204   1.292       .  A
O2181     Eu2197   2.481       .  S
O2182      C2205   1.309       .  A
O2182     Eu2198   2.536       .  S
O2183      C2206   1.291       .  A
O2183     Eu2199   2.475       .  S
O2184      C2207   1.307       .  A
O2184     Eu2199   2.524       .  S
O2185      C2208   1.293   1_655  A
O2185     Eu2198   2.485       .  S
O2186      C2209   1.309       .  A
O2186     Eu2200   2.540       .  S
O2187      C2210   1.294       .  A
O2187     Eu2200   2.489       .  S
O2188      C2209   1.280       .  A
O2188     Eu2198   2.396       .  S
O2189      C2210   1.299       .  A
O2189     Eu2199   2.483       .  S
O2190      C2205   1.280       .  A
O2190     Eu2196   2.397       .  S
O2191      C2208   1.297   1_655  A
O2191     Eu2197   2.472       .  S
O2192      C2207   1.281       .  A
O2192     Eu2197   2.406       .  S
O2193      C2206   1.298       .  A
O2193     Eu2196   2.477       .  S
O2194      C2203   1.278       .  A
O2194     Eu2200   2.385       .  S
O2195      C2204   1.297       .  A
O2195     Eu2200   2.474       .  S
Eu2196     O2214   2.326       .  S
Eu2196     O2202   2.346       .  S
Eu2197     O2201   2.366       .  S
Eu2197     O2212   2.359       .  S
Eu2198     O2212   2.380       .  S
Eu2198     O2202   2.346       .  S
Eu2199     O2201   2.324       .  S
Eu2199     O2214   2.358       .  S
Eu2200     O2201   2.343       .  S
Eu2200     O2212   2.324       .  S
Eu2200     O2214   2.378       .  S
Eu2200     O2202   2.347       .  S
C2210      C2674   1.502   1_545  S
H2211      O2212   0.963       .  S
H2213      O2214   0.963       .  S
O2215      C2226   1.292       .  A
O2215     Eu2251   2.475       .  S
O2216      C2227   1.311       .  A
O2216     Eu2250   2.545       .  S
O2217      C2228   1.294       .  A
O2217     Eu2223   2.491       .  S
O2218      C2229   1.310       .  A
O2218     Eu2223   2.539       .  S
O2219      C2229   1.279       .  A
O2219     Eu2253   2.392       .  S
O2220      C2228   1.299       .  A
O2220     Eu2252   2.484       .  S
O2221      C2227   1.279       .  A
O2221     Eu2223   2.389       .  S
O2222      C2226   1.297       .  A
O2222     Eu2223   2.474       .  S
Eu2223     O2233   2.322       .  S
Eu2223     O2225   2.345       .  S
Eu2223     O2224   2.346       .  S
Eu2223     O2231   2.378       .  S
O2224     Eu2253   2.348       .  S
O2224     Eu2250   2.345       .  S
O2225     Eu2251   2.370       .  S
O2225     Eu2252   2.328       .  S
H2230      O2231   0.963       .  S
O2231     Eu2252   2.356       .  S
O2231     Eu2250   2.320       .  S
H2232      O2233   0.963       .  S
O2233     Eu2251   2.359       .  S
O2233     Eu2253   2.380       .  S
O2234      C2257   1.294       .  A
O2234     Eu2250   2.486       .  S
O2235      C2258   1.307       .  A
O2235     Eu2251   2.528       .  S
O2236      C2259   1.292       .  A
O2236     Eu2252   2.479       .  S
O2237      C2260   1.309       .  A
O2237     Eu2253   2.541       .  S
O2238      C2261   1.294       .  A
O2238     Eu2253   2.490       .  S
O2239      C2262   1.305       .  A
O2239     Eu2252   2.519       .  S
O2240      C2263   1.307       .  A
O2240     Eu2254   2.525       .  S
O2241      C2264   1.292       .  A
O2241     Eu2254   2.482       .  S
O2242      C2263   1.281       .  A
O2242     Eu2252   2.407       .  S
O2243      C2264   1.298       .  A
O2243     Eu2253   2.478       .  S
O2244      C2259   1.297       .  A
O2244     Eu2250   2.474       .  S
O2245      C2262   1.283       .  A
O2245     Eu2251   2.413       .  S
O2246      C2261   1.299       .  A
O2246     Eu2251   2.486       .  S
O2247      C2260   1.279       .  A
O2247     Eu2250   2.388       .  S
O2248      C2257   1.298       .  A
O2248     Eu2254   2.481       .  S
O2249      C2258   1.281       .  A
O2249     Eu2254   2.405       .  S
Eu2250     O2268   2.380       .  S
Eu2250     O2256   2.345       .  S
Eu2251     O2255   2.326       .  S
Eu2251     O2266   2.354       .  S
Eu2252     O2266   2.358       .  S
Eu2252     O2256   2.368       .  S
Eu2253     O2255   2.346       .  S
Eu2253     O2268   2.326       .  S
Eu2254     O2255   2.368       .  S
Eu2254     O2266   2.356       .  S
Eu2254     O2268   2.360       .  S
Eu2254     O2256   2.327       .  S
H2265      O2266   0.965       .  S
H2267      O2268   0.963       .  S
O2269      C2280   1.307       .  A
O2269     Eu2305   2.531       .  S
O2270      C2281   1.295       .  A
O2270     Eu2304   2.493       .  S
O2271      C2282   1.292       .  A
O2271     Eu2277   2.482       .  S
O2272      C2283   1.306       .  A
O2272     Eu2277   2.524       .  S
O2273      C2283   1.281       .  A
O2273     Eu2307   2.401       .  S
O2274      C2282   1.297       .  A
O2274     Eu2306   2.473       .  S
O2275      C2281   1.298       .  A
O2275     Eu2277   2.481       .  S
O2276      C2280   1.282       .  A
O2276     Eu2277   2.411       .  S
Eu2277     O2287   2.355       .  S
Eu2277     O2279   2.367       .  S
Eu2277     O2278   2.331       .  S
Eu2277     O2285   2.360       .  S
O2278     Eu2307   2.368       .  S
O2278     Eu2304   2.346       .  S
O2279     Eu2305   2.323       .  S
O2279     Eu2306   2.344       .  S
H2284      O2285   0.963       .  S
O2285     Eu2306   2.326       .  S
O2285     Eu2304   2.379       .  S
H2286      O2287   0.965       .  S
O2287     Eu2305   2.355       .  S
O2287     Eu2307   2.357       .  S
O2288      C2311   1.310       .  A
O2288     Eu2304   2.542       .  S
O2289      C2312   1.293       .  A
O2289     Eu2305   2.481       .  S
O2290      C2313   1.308       .  A
O2290     Eu2306   2.533       .  S
O2291      C2314   1.292       .  A
O2291     Eu2307   2.478       .  S
O2292      C2315   1.305       .  A
O2292     Eu2307   2.516       .  S
O2293      C2316   1.294       .  A
O2293     Eu2306   2.488       .  S
O2294      C2317   1.308       .  A
O2294     Eu2308   2.536       .  S
O2295      C2318   1.295       .  A
O2295     Eu2308   2.495       .  S
O2296      C2317   1.280       .  A
O2296     Eu2306   2.394       .  S
O2297      C2318   1.297       .  A
O2297     Eu2307   2.477       .  S
O2298      C2313   1.278       .  A
O2298     Eu2304   2.385       .  S
O2299      C2316   1.297       .  A
O2299     Eu2305   2.477       .  S
O2300      C2315   1.281       .  A
O2300     Eu2305   2.401       .  S
O2301      C2314   1.296       .  A
O2301     Eu2304   2.469       .  S
O2302      C2311   1.279       .  A
O2302     Eu2308   2.391       .  S
O2303      C2312   1.297       .  A
O2303     Eu2308   2.473       .  S
Eu2304     O2322   2.323       .  S
Eu2304     O2310   2.346       .  S
Eu2305     O2309   2.370       .  S
Eu2305     O2320   2.360       .  S
Eu2306     O2320   2.377       .  S
Eu2306     O2310   2.346       .  S
Eu2307     O2309   2.326       .  S
Eu2307     O2322   2.354       .  S
Eu2308     O2309   2.345       .  S
Eu2308     O2320   2.328       .  S
Eu2308     O2322   2.377       .  S
Eu2308     O2310   2.347       .  S
H2319      O2320   0.963       .  S
H2321      O2322   0.963       .  S
O2323      C2334   1.309       .  A
O2324      C2335   1.292       .  A
O2324     Eu3222   2.483   1_545  S
O2325      C3200   1.311       .  A
O2325     Eu2331   2.547   1_565  S
O2326      C2337   1.295       .  A
O2326     Eu2331   2.495       .  S
O2327      C2337   1.298       .  A
O2327     Eu2361   2.479       .  S
O2328      C2336   1.278       .  A
O2328     Eu2360   2.384       .  S
O2329      C2335   1.298       .  A
O2329     Eu2331   2.477       .  S
O2330      C2334   1.279       .  A
O2330     Eu2331   2.387       .  S
Eu2331     O2341   2.381       .  S
Eu2331     O3197   2.346   1_545  S
Eu2331     O2332   2.345       .  S
Eu2331     O3203   2.323   1_545  S
O2332     Eu2361   2.328       .  S
O2332     Eu3222   2.369   1_545  S
O2333     Eu3195   2.346       .  S
O2333     Eu2360   2.344       .  S
C2336      O3189   1.311       .  A
H2338      O2339   0.963       .  S
O2339     Eu3195   2.323       .  S
O2339     Eu2360   2.380       .  S
O2339     Eu2358   2.358       .  S
H2340      O2341   0.963       .  S
O2341     Eu2361   2.360       .  S
O2342      C2365   1.307       .  A
O2342     Eu2358   2.529       .  S
O2343      C2366   1.294       .  A
O2343     Eu2359   2.492       .  S
O2344      C2367   1.293       .  A
O2344     Eu2360   2.487       .  S
O2345      C2368   1.306       .  A
O2345     Eu2361   2.524       .  S
O2346      C2369   1.291       .  A
O2347      C2370   1.310       .  A
O2348      C2371   1.292       .  A
O2348     Eu2362   2.481       .  S
O2349      C3236   1.307       .  A
O2349     Eu2362   2.526       .  S
O2350      C2371   1.296       .  A
O2351      C2372   1.282   1_455  A
O2352      C2367   1.300       .  A
O2352     Eu2358   2.488       .  S
O2353      C2370   1.279       .  A
O2353     Eu2359   2.389       .  S
O2354      C2369   1.298       .  A
O2354     Eu3223   2.479   1_545  S
O2355      C2368   1.281       .  A
O2355     Eu3222   2.406   1_545  S
O2356      C2365   1.282       .  A
O2357      C2366   1.299       .  A
O2357     Eu2362   2.486       .  S
Eu2358     O3188   2.483       .  S
Eu2358     O3219   2.406       .  S
Eu2358     O3196   2.369       .  S
Eu2358     O2376   2.359       .  S
Eu2358     O2364   2.326       .  S
Eu2359     O3218   2.479       .  S
Eu2359     O2363   2.345       .  S
Eu2359     O2374   2.380       .  S
Eu2360     O2364   2.343       .  S
Eu2361     O3240   2.354   1_545  S
Eu2362     O2363   2.327       .  S
Eu2362     O2374   2.358       .  S
C2372      O3213   1.307   1_545  A
H2373      O2374   0.963       .  S
H2375      O3240   0.965       .  S
O2376     Eu3225   2.354       .  S
O2376      H3239   0.965       .  S
C2377      C2378   1.409       .  A
C2377      C2382   1.405       .  A
C2378      C2379   1.389       .  A
C2378      H2387   1.084       .  S
C2379      C2380   1.405       .  A
C2379      S2383   1.805       .  S
C2380      C2381   1.408       .  A
C2381      C2382   1.389       .  A
C2381      H2388   1.084       .  S
C2382      S2384   1.804       .  S
S2383      H2386   1.406       .  S
S2384      H2385   1.405       .  S
C2389      C2394   1.411       .  A
C2390      H2399   1.085       .  S
C2391      C2392   1.414       .  A
C2391      S2395   1.810       .  S
C2392      C2393   1.397       .  A
C2393      C2394   1.389       .  A
C2393      H2400   1.084       .  S
C2394      S2396   1.806   1_554  S
S2395      H2398   1.401       .  S
S2396      H2397   1.404   1_556  S
C2401      C2402   1.403       .  A
C2401      C2406   1.406       .  A
C2402      C2403   1.391       .  A
C2402      H2411   1.085       .  S
C2403      C2404   1.407       .  A
C2403      S2407   1.805       .  S
C2404      C2405   1.403       .  A
C2405      C2406   1.389       .  A
C2405      H2412   1.085       .  S
C2406      S2408   1.804       .  S
S2407      H2410   1.406   1_655  S
S2408      H2409   1.406       .  S
C2413      C3278   1.393       .  A
C2413      C2418   1.416   1_545  A
C2414      C3277   1.393       .  A
C2414      C2415   1.387       .  A
C2414      H2423   1.084       .  S
C2415      C2416   1.416       .  A
C2415      S2419   1.805       .  S
C2416      C2417   1.395       .  A
C2417      C3282   1.388       .  A
C2417      H2424   1.084       .  S
C2418      C3281   1.388       .  A
C2418      S2420   1.807       .  S
S2419      H2422   1.407       .  S
S2420      H2421   1.407       .  S
C2425      C2426   1.393       .  A
C2425      C2430   1.414       .  A
C2426      C2427   1.387       .  A
C2426      H2435   1.084       .  S
C2427      C2428   1.414       .  A
C2427      S2431   1.805       .  S
C2428      C2838   1.449   1_545  S
C2428      C2429   1.394       .  A
C2429      C2430   1.387       .  A
C2429      H2436   1.084       .  S
C2430      S2432   1.807       .  S
S2431      H3298   1.406   1_545  S
S2432      H2433   1.406       .  S
H2434      S3295   1.406       .  S
C2437      C2438   1.402       .  A
C2437      C2442   1.408       .  A
C2438      C2439   1.391       .  A
C2438      H2447   1.085       .  S
C2439      C2440   1.408       .  A
C2439      S2443   1.805       .  S
C2440      C2441   1.402       .  A
C2441      C2442   1.390       .  A
C2441      H2448   1.085       .  S
C2442      S2444   1.805       .  S
S2443      H2446   1.406       .  S
S2444      H2445   1.406       .  S
C2449      C2450   1.402       .  A
C2449      C2454   1.408       .  A
C2450      C2451   1.391       .  A
C2451      C2452   1.410       .  A
C2452      C2802   1.460   1_545  S
C2452      C2453   1.403       .  A
C2453      C2454   1.390       .  A
C2453      H2460   1.085       .  S
C2454      S2456   1.804       .  S
S2456      H2457   1.406       .  S
C2461      C2462   1.397       .  A
C2461      C2466   1.411       .  A
C2462      C2463   1.388       .  A
C2462      H2471   1.084       .  S
C2463      C2464   1.412       .  A
C2463      S2467   1.806       .  S
C2464      C2465   1.396       .  A
C2465      C2466   1.387       .  A
C2465      H2472   1.085       .  S
C2466      S2468   1.806       .  S
S2467      H2470   1.404       .  S
S2468      H2469   1.405       .  S
C2473      C3338   1.394       .  A
C2473      C3342   1.415   1_545  A
C2474      C3337   1.394       .  A
C2474      C2475   1.389       .  A
C2474      H3347   1.084       .  S
C2475      C2476   1.414       .  A
C2475      S2479   1.806       .  S
C2476      C2477   1.393       .  A
C2477      C2478   1.385       .  A
C2477      H2484   1.084       .  S
C2478      C3337   1.415       .  A
C2478      S3344   1.808   1_554  S
S2479      H2482   1.406       .  S
S2480      C3342   1.808   1_556  S
S2480      H2481   1.406       .  S
H2483      C3338   1.084       .  S
C2485      C2486   1.396       .  A
C2485      C2490   1.412       .  A
C2486      C2487   1.387       .  A
C2486      H2495   1.085       .  S
C2487      C2488   1.411       .  A
C2487      S2491   1.806       .  S
C2488      C2489   1.397       .  A
C2489      C2490   1.389       .  A
C2489      H2496   1.084       .  S
C2490      S2492   1.807       .  S
S2491      H2494   1.405       .  S
S2492      H2493   1.404       .  S
C2497      C2498   1.408       .  A
C2497      C2502   1.405       .  A
C2498      C2499   1.388       .  A
C2498      H2507   1.084       .  S
C2499      C2500   1.404       .  A
C2499      S2503   1.805       .  S
C2500      C2501   1.407       .  A
C2501      C2502   1.388       .  A
C2501      H2508   1.084       .  S
C2502      S2504   1.804       .  S
S2503      H2506   1.406       .  S
S2504      H2505   1.406       .  S
C2509      C2510   1.397       .  A
C2509      C2514   1.412       .  A
C2510      C2511   1.389       .  A
C2510      H2519   1.084       .  S
C2511      C2512   1.411       .  A
C2511      S2515   1.806       .  S
C2512      C2513   1.397       .  A
C2513      C2514   1.388       .  A
C2513      H2520   1.084       .  S
C2514      S2516   1.806       .  S
S2515      H2518   1.405       .  S
S2516      H2517   1.405       .  S
C2521      C2522   1.401       .  A
C2521      C2526   1.409       .  A
C2522      C2523   1.388       .  A
C2522      H2531   1.085   1_545  S
C2523      C2524   1.409       .  A
C2523      S2527   1.806   1_545  S
C2524      C2525   1.402       .  A
C2525      C2526   1.390       .  A
C2525      H2532   1.085       .  S
C2526      S2528   1.804       .  S
S2527      H2530   1.406   1_565  S
S2528      H2529   1.405       .  S
C2533      C2534   1.397       .  A
C2533      C2538   1.412       .  A
C2534      C2535   1.388       .  A
C2534      H2543   1.084       .  S
C2535      C2536   1.412       .  A
C2535      S2539   1.806       .  S
C2536      C2537   1.397       .  A
C2537      C2538   1.389       .  A
C2537      H2544   1.084       .  S
C2538      S2540   1.806       .  S
S2539      H2542   1.405       .  S
S2540      H2541   1.405       .  S
C2545      C2546   1.404       .  A
C2545      C2550   1.404       .  A
C2546      C2547   1.391       .  A
C2546      H2555   1.085       .  S
C2547      C2548   1.405       .  A
C2547      S2551   1.805       .  S
C2548      C2549   1.405       .  A
C2549      C2550   1.388       .  A
C2549      H2556   1.085   1_554  S
C2550      S2552   1.805   1_554  S
S2551      H2554   1.402       .  S
S2552      H2553   1.402       .  S
C2557      C2558   1.402       .  A
C2558      C2559   1.392       .  A
C2558      H2567   1.084       .  S
C2559      C2560   1.410       .  A
C2559      S2563   1.805       .  S
C2560      C2561   1.401       .  A
C2561      H2568   1.085       .  S
C2562      S2564   1.806       .  S
S2563      H2566   1.406       .  S
S2564      H2565   1.407       .  S
C2569      C2570   1.402       .  A
C2569      C2574   1.408       .  A
C2570      C2571   1.390       .  A
C2570      H2579   1.085       .  S
C2571      C2572   1.408       .  A
C2571      S2575   1.805       .  S
C2572      C2573   1.402       .  A
C2573      C2574   1.391       .  A
C2573      H2580   1.085       .  S
C2574      S2576   1.804       .  S
S2575      H2578   1.406       .  S
S2576      H2577   1.407       .  S
C2581      C2582   1.394       .  A
C2581      C2586   1.416       .  A
C2582      C2583   1.387       .  A
C2582      H2591   1.084       .  S
C2583      C2584   1.416       .  A
C2583      S2587   1.807       .  S
C2584      C2585   1.394       .  A
C2585      C2586   1.388       .  A
C2585      H2592   1.084       .  S
C2586      S2588   1.807       .  S
S2588      H2589   1.407       .  S
C2593      C3090   1.497       .  S
C2594      C2595   1.391       .  A
C2595      C3445   1.454       .  S
C2595      C2596   1.378       .  A
C2596      C2597   1.387       .  A
C2596      H2600   1.086       .  S
C2597      C2928   1.478       .  S
C2597      C2598   1.424       .  A
C2598      H2601   1.083       .  S
C2602      C3121   1.499       .  S
C2602      C2603   1.408       .  A
C2602      C2607   1.425       .  A
C2603      C2604   1.392       .  A
C2603      H2608   1.084       .  S
C2604      C2605   1.380       .  A
C2605      C2606   1.385       .  A
C2606      C3198   1.481       .  S
C2606      C2607   1.427       .  A
C2607      H2610   1.083       .  S
C2611      C2612   1.409       .  A
C2611      C2616   1.425       .  A
C2612      C2613   1.391       .  A
C2612      H2617   1.084       .  S
C2613      C3436   1.456       .  S
C2613      C2614   1.382       .  A
C2614      C2615   1.390       .  A
C2614      H2618   1.085       .  S
C2615      C3126   1.483       .  S
C2615      C2616   1.425       .  A
C2616      H2619   1.083       .  S
C2620      C2966   1.499       .  S
C2620      C2621   1.409       .  A
C2620      C2625   1.422       .  A
C2621      C2622   1.393       .  A
C2621      H2626   1.084       .  S
C2622      C3433   1.455       .  S
C2622      C2623   1.384       .  A
C2623      C2624   1.387       .  A
C2623      H2627   1.085       .  S
C2624      C2982   1.480       .  S
C2624      C2625   1.425       .  A
C2625      H2628   1.083       .  S
C2629      C3235   1.497       .  S
C2629      C2630   1.409       .  A
C2629      C2634   1.425       .  A
C2630      C2631   1.391       .  A
C2631      C2632   1.382       .  A
C2632      C2633   1.390       .  A
C2632      H2636   1.085       .  S
C2633      C3036   1.484       .  S
C2633      C2634   1.425       .  A
C2634      H2637   1.083       .  S
C2638      C3201   1.502       .  S
C2638      C2639   1.409       .  A
C2638      C2643   1.424       .  A
C2639      C2640   1.395       .  A
C2639      H2644   1.084       .  S
C2640      C3424   1.457       .  S
C2640      C2641   1.385       .  A
C2641      C2642   1.387       .  A
C2641      H2645   1.085       .  S
C2642      C3124   1.481       .  S
C2642      C2643   1.426       .  A
C2643      H2646   1.083       .  S
C2647      C2985   1.501       .  S
C2647      C2648   1.409       .  A
C2647      C2652   1.424   1_554  A
C2648      C2649   1.393       .  A
C2648      H2653   1.084       .  S
C2649      C3412   1.454       .  S
C2649      C2650   1.384   1_554  A
C2650      C2651   1.387       .  A
C2650      H2654   1.086       .  S
C2651      C2959   1.482       .  S
C2651      C2652   1.426       .  A
C2652      H2655   1.083       .  S
C2656      C3019   1.500       .  S
C2656      C2657   1.428       .  A
C2656      C2661   1.407       .  A
C2657      C2658   1.428       .  A
C2657      H2662   1.083       .  S
C2658      C3144   1.487       .  S
C2658      C2659   1.390       .  A
C2659      C2660   1.382       .  A
C2659      H2663   1.085       .  S
C2660      C3409   1.453       .  S
C2660      C2661   1.389       .  A
C2661      H2664   1.084       .  S
C2665      C3038   1.500       .  S
C2665      C2666   1.427       .  A
C2665      C2670   1.407       .  A
C2666      C2667   1.426       .  A
C2666      H2671   1.083       .  S
C2668      C2669   1.380       .  A
C2668      H2672   1.085       .  S
C2669      C3400   1.451       .  S
C2670      H2673   1.084       .  S
C2674      C2675   1.408       .  A
C2674      C2679   1.427       .  A
C2675      C2676   1.391       .  A
C2675      H2680   1.084       .  S
C2676      C3397   1.450       .  S
C2676      C2677   1.381       .  A
C2677      C2678   1.386       .  A
C2677      H2681   1.085       .  S
C2678      C3175   1.484       .  S
C2678      C2679   1.429       .  A
C2679      H2682   1.083       .  S
C2683      C3146   1.498       .  S
C2683      C2684   1.408       .  A
C2683      C2688   1.426       .  A
C2684      C2685   1.390       .  A
C2684      H2689   1.084       .  S
C2685      C3388   1.455       .  S
C2685      C2686   1.381       .  A
C2686      C2687   1.388       .  A
C2686      H2690   1.085       .  S
C2687      C3013   1.483       .  S
C2687      C2688   1.425       .  A
C2688      H2691   1.083       .  S
C2692      C3182   1.502   1_545  S
C2693      C2694   1.427       .  A
C2693      H2698   1.083       .  S
C2694      C3067   1.482       .  S
C2694      C2695   1.386       .  A
C2695      C2696   1.384       .  A
C2695      H2699   1.085       .  S
C2696      C3385   1.455       .  S
C2696      C2697   1.393       .  A
C2701      C2702   1.407       .  A
C2701      C2706   1.428       .  A
C2702      C2703   1.389       .  A
C2702      H2707   1.084       .  S
C2703      C3376   1.449       .  S
C2703      C2704   1.378       .  A
C2704      C2705   1.388       .  A
C2704      H2708   1.085       .  S
C2705      C3122   1.484       .  S
C2705      C2706   1.428       .  A
C2706      H2709   1.083       .  S
C2710      C2929   1.503       .  S
C2710      C2711   1.408       .  A
C2710      C2715   1.426       .  A
C2711      H2716   1.084       .  S
C2712      C3373   1.449       .  S
C2712      C2713   1.381       .  A
C2713      H2717   1.085       .  S
C2714      C2715   1.429       .  A
C2715      H2718   1.083       .  S
C2719      C3092   1.502       .  S
C2719      C2720   1.409       .  A
C2719      C2724   1.426       .  A
C2720      C2721   1.394       .  A
C2720      H2725   1.083       .  S
C2721      C3361   1.461       .  S
C2721      C2722   1.382       .  A
C2722      C2723   1.386       .  A
C2722      H2726   1.085       .  S
C2723      C3234   1.483       .  S
C2723      C2724   1.427       .  A
C2724      H2727   1.083       .  S
C2728      C3128   1.500       .  S
C2728      C2729   1.408       .  A
C2729      H2734   1.083       .  S
C2730      C3364   1.459       .  S
C2730      C2731   1.381       .  A
C2731      C2732   1.387       .  A
C2731      H2735   1.086       .  S
C2732      C2963   1.481       .  S
C2732      C2733   1.425       .  A
C2737      C3199   1.501       .  S
C2737      C2738   1.407       .  A
C2737      C2742   1.428       .  A
C2738      C2739   1.390       .  A
C2738      H2743   1.084       .  S
C2739      C3352   1.450       .  S
C2739      C2740   1.380       .  A
C2740      C2741   1.388       .  A
C2740      H2744   1.085       .  S
C2741      C3039   1.484       .  S
C2741      C2742   1.427       .  A
C2742      H2745   1.082       .  S
C2746      C3230   1.503       .  S
C2746      C2747   1.428       .  A
C2746      C2751   1.408       .  A
C2747      C2748   1.430       .  A
C2747      H2752   1.083       .  S
C2748      C3091   1.485       .  S
C2748      C2749   1.386       .  A
C2749      C2750   1.380       .  A
C2749      H2753   1.085       .  S
C2750      C3349   1.448       .  S
C2750      C2751   1.390       .  A
C2751      H2754   1.084       .  S
C2755      C3015   1.500       .  S
C2755      C2756   1.408       .  A
C2755      C2760   1.426   1_554  A
C2756      C2757   1.390       .  A
C2756      H2761   1.084       .  S
C2757      C3337   1.449       .  S
C2757      C2758   1.379   1_554  A
C2758      C2759   1.383       .  A
C2758      H2762   1.086       .  S
C2759      C2961   1.479       .  S
C2759      C2760   1.427       .  A
C2760      H2763   1.083       .  S
C2764      C3017   1.494       .  S
C2764      C2765   1.406       .  A
C2764      C2769   1.425       .  A
C2765      C2766   1.387       .  A
C2765      H2770   1.084       .  S
C2766      C3340   1.449       .  S
C2766      C2767   1.377       .  A
C2767      C2768   1.388       .  A
C2767      H2771   1.085       .  S
C2768      C3179   1.480       .  S
C2768      C2769   1.425       .  A
C2769      H2772   1.083       .  S
C2773      C3070   1.498       .  S
C2773      C2774   1.406       .  A
C2773      C2778   1.427       .  A
C2774      C2775   1.389       .  A
C2774      H2779   1.084       .  S
C2775      C3325   1.448       .  S
C2775      C2776   1.379       .  A
C2776      C2777   1.388       .  A
C2776      H2780   1.086       .  S
C2777      C3232   1.482       .  S
C2777      C2778   1.426       .  A
C2778      H2781   1.082       .  S
C2782      C2783   1.407       .  A
C2782      C2787   1.424       .  A
C2783      C2784   1.389       .  A
C2783      H2788   1.084       .  S
C2784      C3328   1.447       .  S
C2784      C2785   1.380       .  A
C2785      C2786   1.386       .  A
C2785      H2789   1.085       .  S
C2786      C3177   1.479       .  S
C2786      C2787   1.426       .  A
C2787      H2790   1.083       .  S
C2791      C3145   1.502       .  S
C2792      C2793   1.394       .  A
C2793      C3313   1.459       .  S
C2793      C2794   1.385       .  A
C2794      C2795   1.388       .  A
C2794      H2798   1.085       .  S
C2795      C3073   1.485       .  S
C2795      C2796   1.427       .  A
C2796      H2799   1.083   1_655  S
C2800      C3176   1.499       .  S
C2800      C2801   1.408       .  A
C2800      C2805   1.425       .  A
C2801      C2802   1.392       .  A
C2801      H2806   1.084       .  S
C2802      C2803   1.383       .  A
C2803      C2804   1.390       .  A
C2804      C3020   1.483       .  S
C2804      C2805   1.424       .  A
C2805      H2808   1.083       .  S
C2809      C3037   1.501       .  S
C2809      C2810   1.409       .  A
C2809      C2814   1.424       .  A
C2810      C2811   1.393       .  A
C2810      H2815   1.084       .  S
C2811      C3301   1.456       .  S
C2811      C2812   1.384       .  A
C2812      C2813   1.388       .  A
C2812      H2816   1.085       .  S
C2813      C3181   1.483       .  S
C2813      C2814   1.426       .  A
C2814      H2817   1.083       .  S
C2818      C3068   1.500       .  S
C2818      C2819   1.408       .  A
C2818      C2823   1.426       .  A
C2819      H2824   1.084       .  S
C2820      C3304   1.456       .  S
C2820      C2821   1.383       .  A
C2821      H2825   1.085       .  S
C2822      C3236   1.485       .  S
C2822      C2823   1.426       .  A
C2823      H2826   1.083       .  S
C2827      C3123   1.498       .  S
C2827      C2828   1.407       .  A
C2827      C2832   1.427       .  A
C2828      C2829   1.388       .  A
C2828      H2833   1.084       .  S
C2829      C3289   1.448       .  S
C2829      C2830   1.377       .  A
C2830      C2831   1.385       .  A
C2830      H2834   1.086       .  S
C2831      C2931   1.480       .  S
C2831      C2832   1.426       .  A
C2832      H2835   1.083       .  S
C2836      C3125   1.502       .  S
C2836      C2837   1.408       .  A
C2836      C2841   1.428       .  A
C2837      C2838   1.390       .  A
C2837      H2842   1.084       .  S
C2838      C2839   1.379       .  A
C2839      C2840   1.384       .  A
C2840      C3200   1.484       .  S
C2840      C2841   1.430       .  A
C2841      H2844   1.083       .  S
C2845      C3233   1.498       .  S
C2845      C2846   1.407       .  A
C2845      C2850   1.427       .  A
C2846      C2847   1.389       .  A
C2846      H2851   1.084       .  S
C2847      C3277   1.454       .  S
C2847      C2848   1.379       .  A
C2848      C2849   1.388       .  A
C2848      H2852   1.085       .  S
C2849      C3071   1.482       .  S
C2849      C2850   1.426       .  A
C2850      H2853   1.083       .  S
C2854      C3231   1.502       .  S
C2854      C2855   1.408       .  A
C2854      C2859   1.427       .  A
C2855      C2856   1.392       .  A
C2855      H2860   1.084       .  S
C2856      C3280   1.456       .  S
C2856      C2857   1.380       .  A
C2857      C2858   1.386       .  A
C2857      H2861   1.085       .  S
C2858      C3093   1.483       .  S
C2858      C2859   1.428       .  A
C2859      H2862   1.083       .  S
C2863      C3180   1.500       .  S
C2863      C2864   1.408       .  A
C2863      C2868   1.425       .  A
C2864      C2865   1.391       .  A
C2864      H2869   1.084       .  S
C2865      C3265   1.455       .  S
C2865      C2866   1.384       .  A
C2866      C2867   1.389       .  A
C2866      H2870   1.085       .  S
C2867      C3069   1.485       .  S
C2867      C2868   1.427       .  A
C2868      H2871   1.083       .  S
C2872      C3178   1.497       .  S
C2872      C2873   1.407       .  A
C2872      C2877   1.425       .  A
C2873      C2874   1.390       .  A
C2873      H2878   1.084       .  S
C2874      C2875   1.383       .  A
C2875      C2876   1.390       .  A
C2875      H2879   1.085       .  S
C2876      C3016   1.482       .  S
C2876      C2877   1.424       .  A
C2877      H2880   1.083       .  S
C2881      C3014   1.500       .  S
C2881      C2882   1.408       .  A
C2881      C2886   1.426   1_554  A
C2882      C2883   1.389       .  A
C2882      H2887   1.084       .  S
C2883      C2884   1.379   1_554  A
C2884      C2885   1.386       .  A
C2884      H2888   1.085       .  S
C2885      C2965   1.483       .  S
C2885      C2886   1.429       .  A
C2886      H2889   1.083       .  S
C2890      C2983   1.497       .  S
C2890      C2891   1.409       .  A
C2890      C2895   1.425       .  A
C2891      C2892   1.390       .  A
C2891      H2896   1.084       .  S
C2892      C3256   1.448       .  S
C2892      C2893   1.379       .  A
C2893      C2894   1.387       .  A
C2893      H2897   1.086       .  S
C2894      C3147   1.480       .  S
C2894      C2895   1.424       .  A
C2895      H2898   1.083       .  S
C2899      C2962   1.499       .  S
C2899      C2900   1.409       .  A
C2899      C2904   1.426       .  A
C2900      C2901   1.394       .  A
C2900      H2905   1.083       .  S
C2901      C3244   1.463       .  S
C2901      C2902   1.382       .  A
C2902      C2903   1.388       .  A
C2902      H2906   1.086       .  S
C2903      C3127   1.481       .  S
C2903      C2904   1.424       .  A
C2904      H2907   1.083       .  S
C2908      C2964   1.501       .  S
C2908      C2909   1.410       .  A
C2908      C2913   1.424       .  A
C2909      H2914   1.083       .  S
C2910      C3241   1.463       .  S
C2910      C2911   1.383       .  A
C2911      H2915   1.085       .  S
C2912      C2913   1.426       .  A
C2913      H2916   1.083       .  S
O2917      C2928   1.307       .  A
O2917     Eu2953   2.524       .  S
O2918      C2929   1.295       .  A
O2918     Eu2952   2.496       .  S
O2919      C2930   1.293       .  A
O2919     Eu2925   2.486       .  S
O2920      C2931   1.308       .  A
O2920     Eu2925   2.532       .  S
O2921      C2931   1.279       .  A
O2921     Eu2955   2.392       .  S
O2922      C2930   1.296       .  A
O2922     Eu2954   2.469       .  S
O2923      C2929   1.298       .  A
O2923     Eu2925   2.479       .  S
O2924      C2928   1.281       .  A
O2924     Eu2925   2.400       .  S
Eu2925     O2935   2.355       .  S
Eu2925     O2927   2.367       .  S
Eu2925     O2926   2.325       .  S
Eu2925     O2933   2.359       .  S
O2926     Eu2955   2.368       .  S
O2926     Eu2952   2.343       .  S
O2927     Eu2953   2.325       .  S
O2927     Eu2954   2.344       .  S
H2932      O2933   0.963       .  S
O2933     Eu2954   2.325       .  S
O2933     Eu2952   2.379       .  S
H2934      O2935   0.965       .  S
O2935     Eu2953   2.355       .  S
O2935     Eu2955   2.353       .  S
O2936      C2959   1.309       .  A
O2936     Eu2952   2.542       .  S
O2937      C2960   1.292   1_655  A
O2937     Eu2953   2.482       .  S
O2938      C2961   1.310       .  A
O2938     Eu2954   2.543       .  S
O2939      C2962   1.292       .  A
O2939     Eu2955   2.481       .  S
O2940      C2963   1.307       .  A
O2940     Eu2955   2.529       .  S
O2941      C2964   1.295       .  A
O2941     Eu2954   2.493       .  S
O2942      C2965   1.309       .  A
O2942     Eu2956   2.539       .  S
O2943      C2966   1.295       .  A
O2943     Eu2956   2.494       .  S
O2944      C2965   1.279       .  A
O2944     Eu2954   2.389       .  S
O2945      C2966   1.296       .  A
O2945     Eu2955   2.468       .  S
O2946      C2961   1.277       .  A
O2946     Eu2952   2.378       .  S
O2947      C2964   1.298       .  A
O2947     Eu2953   2.479       .  S
O2948      C2963   1.280       .  A
O2948     Eu2953   2.400       .  S
O2949      C2962   1.297       .  A
O2949     Eu2952   2.474       .  S
O2950      C2959   1.279       .  A
O2950     Eu2956   2.388       .  S
O2951      C2960   1.298   1_655  A
O2951     Eu2956   2.476       .  S
Eu2952     O2970   2.327       .  S
Eu2952     O2958   2.348       .  S
Eu2953     O2957   2.367       .  S
Eu2953     O2968   2.356       .  S
Eu2954     O2968   2.379       .  S
Eu2954     O2958   2.344       .  S
Eu2955     O2957   2.323       .  S
Eu2955     O2970   2.358       .  S
Eu2956     O2957   2.342       .  S
Eu2956     O2968   2.324       .  S
Eu2956     O2970   2.380       .  S
Eu2956     O2958   2.347       .  S
H2967      O2968   0.963       .  S
H2969      O2970   0.963       .  S
O2971      C2982   1.309       .  A
O2971     Eu3007   2.539       .  S
O2972      C2983   1.293       .  A
O2972     Eu3006   2.481       .  S
O2973      C2984   1.311   1_565  A
O2973     Eu2979   2.547       .  S
O2974      C2985   1.295       .  A
O2975      C2985   1.298       .  A
O2975     Eu3009   2.477       .  S
O2976     Eu3008   2.384       .  S
O2977      C2983   1.296       .  A
O2977     Eu2979   2.467   1_554  S
O2978      C2982   1.278       .  A
Eu2979     O2981   2.343       .  S
Eu2979     O2980   2.347   1_556  S
Eu2979     O2987   2.323   1_556  S
O2980     Eu3006   2.366       .  S
H2986      O2987   0.963       .  S
O2987     Eu3006   2.357       .  S
H2988      O2989   0.963       .  S
O2989     Eu3007   2.326   1_554  S
O2989     Eu3009   2.363       .  S
O2990      C3013   1.306       .  A
O2991      C3014   1.294   1_556  A
O2992      C3015   1.294   1_556  A
O2992     Eu3008   2.489       .  S
O2993     Eu3009   2.522   1_455  S
O2994      C3017   1.291       .  A
O2994     Eu3009   2.473       .  S
O2995      C3018   1.309       .  A
O2995     Eu3008   2.538       .  S
O2996      C3019   1.291       .  A
O2996     Eu3010   2.478       .  S
O2998      C3019   1.298       .  A
O2998     Eu3008   2.475   1_554  S
O2999      C3020   1.282       .  A
O2999     Eu3009   2.412       .  S
O3000      C3015   1.298       .  A
O3002      C3017   1.297       .  A
O3002     Eu3007   2.471   1_554  S
O3003      C3016   1.282       .  A
O3003     Eu3006   2.410       .  S
O3004      C3013   1.282       .  A
O3004     Eu3010   2.407       .  S
O3005      C3014   1.297       .  A
Eu3006     O3024   2.356       .  S
Eu3007     O3011   2.346   1_556  S
Eu3008     O3022   2.321   1_556  S
Eu3008     O3012   2.341   1_556  S
Eu3009     O3011   2.367       .  S
Eu3010     O3022   2.359       .  S
Eu3010     O3012   2.365       .  S
H3021      O3022   0.963       .  S
H3023      O3024   0.965       .  S
O3025      C3036   1.305       .  A
O3025     Eu3061   2.515       .  S
O3026      C3037   1.295       .  A
O3026     Eu3060   2.494       .  S
O3027      C3038   1.292       .  A
O3027     Eu3033   2.476       .  S
O3028      C3039   1.308       .  A
O3028     Eu3033   2.530       .  S
O3029      C3039   1.281       .  A
O3029     Eu3063   2.405       .  S
O3030      C3038   1.298       .  A
O3030     Eu3062   2.480       .  S
O3031      C3037   1.298       .  A
O3031     Eu3033   2.478       .  S
O3032      C3036   1.282       .  A
O3032     Eu3033   2.413       .  S
Eu3033     O3043   2.354       .  S
Eu3033     O3035   2.369       .  S
Eu3033     O3034   2.327       .  S
Eu3033     O3041   2.362       .  S
O3034     Eu3063   2.369       .  S
O3034     Eu3060   2.348       .  S
O3035     Eu3061   2.328       .  S
O3035     Eu3062   2.346       .  S
H3040      O3041   0.963       .  S
O3041     Eu3062   2.324       .  S
O3041     Eu3060   2.378       .  S
H3042      O3043   0.965       .  S
O3043     Eu3061   2.356       .  S
O3043     Eu3063   2.357       .  S
O3044      C3067   1.310       .  A
O3044     Eu3060   2.546       .  S
O3045      C3068   1.292       .  A
O3045     Eu3061   2.481       .  S
O3046      C3069   1.309       .  A
O3046     Eu3062   2.536       .  S
O3047      C3070   1.291       .  A
O3047     Eu3063   2.475       .  S
O3048      C3071   1.307       .  A
O3048     Eu3063   2.524       .  S
O3049      C3072   1.293   1_655  A
O3049     Eu3062   2.485       .  S
O3050      C3073   1.309       .  A
O3050     Eu3064   2.540       .  S
O3051      C3074   1.294       .  A
O3051     Eu3064   2.489       .  S
O3052      C3073   1.280       .  A
O3052     Eu3062   2.396       .  S
O3053      C3074   1.299       .  A
O3053     Eu3063   2.483       .  S
O3054      C3069   1.280       .  A
O3054     Eu3060   2.397       .  S
O3055      C3072   1.297   1_655  A
O3055     Eu3061   2.472       .  S
O3056      C3071   1.281       .  A
O3056     Eu3061   2.406       .  S
O3057      C3070   1.298       .  A
O3057     Eu3060   2.477       .  S
O3058      C3067   1.278       .  A
O3058     Eu3064   2.385       .  S
O3059      C3068   1.297       .  A
O3059     Eu3064   2.474       .  S
Eu3060     O3078   2.326       .  S
Eu3060     O3066   2.346       .  S
Eu3061     O3065   2.366       .  S
Eu3061     O3076   2.359       .  S
Eu3062     O3076   2.380       .  S
Eu3062     O3066   2.346       .  S
Eu3063     O3065   2.324       .  S
Eu3063     O3078   2.358       .  S
Eu3064     O3065   2.343       .  S
Eu3064     O3076   2.324       .  S
Eu3064     O3078   2.378       .  S
Eu3064     O3066   2.347       .  S
H3075      O3076   0.963       .  S
H3077      O3078   0.963       .  S
O3079      C3090   1.292       .  A
O3079     Eu3115   2.475       .  S
O3080      C3091   1.311       .  A
O3080     Eu3114   2.545       .  S
O3081      C3092   1.294       .  A
O3081     Eu3087   2.491       .  S
O3082      C3093   1.310       .  A
O3082     Eu3087   2.539       .  S
O3083      C3093   1.279       .  A
O3083     Eu3117   2.392       .  S
O3084      C3092   1.299       .  A
O3084     Eu3116   2.484       .  S
O3085      C3091   1.279       .  A
O3085     Eu3087   2.389       .  S
O3086      C3090   1.297       .  A
O3086     Eu3087   2.474       .  S
Eu3087     O3097   2.322       .  S
Eu3087     O3089   2.345       .  S
Eu3087     O3088   2.346       .  S
Eu3087     O3095   2.378       .  S
O3088     Eu3117   2.348       .  S
O3088     Eu3114   2.345       .  S
O3089     Eu3115   2.370       .  S
O3089     Eu3116   2.328       .  S
H3094      O3095   0.963       .  S
O3095     Eu3116   2.356       .  S
O3095     Eu3114   2.320       .  S
H3096      O3097   0.963       .  S
O3097     Eu3115   2.359       .  S
O3097     Eu3117   2.380       .  S
O3098      C3121   1.294       .  A
O3098     Eu3114   2.486       .  S
O3099      C3122   1.307       .  A
O3099     Eu3115   2.528       .  S
O3100      C3123   1.292       .  A
O3100     Eu3116   2.479       .  S
O3101      C3124   1.309       .  A
O3101     Eu3117   2.541       .  S
O3102      C3125   1.294       .  A
O3102     Eu3117   2.490       .  S
O3103      C3126   1.305       .  A
O3103     Eu3116   2.519       .  S
O3104      C3127   1.307       .  A
O3104     Eu3118   2.525       .  S
O3105      C3128   1.292       .  A
O3105     Eu3118   2.482       .  S
O3106      C3127   1.281       .  A
O3106     Eu3116   2.407       .  S
O3107      C3128   1.298       .  A
O3107     Eu3117   2.478       .  S
O3108      C3123   1.297       .  A
O3108     Eu3114   2.474       .  S
O3109      C3126   1.283       .  A
O3109     Eu3115   2.413       .  S
O3110      C3125   1.299       .  A
O3110     Eu3115   2.486       .  S
O3111      C3124   1.279       .  A
O3111     Eu3114   2.388       .  S
O3112      C3121   1.298       .  A
O3112     Eu3118   2.481       .  S
O3113      C3122   1.281       .  A
O3113     Eu3118   2.405       .  S
Eu3114     O3132   2.380       .  S
Eu3114     O3120   2.345       .  S
Eu3115     O3119   2.326       .  S
Eu3115     O3130   2.354       .  S
Eu3116     O3130   2.358       .  S
Eu3116     O3120   2.368       .  S
Eu3117     O3119   2.346       .  S
Eu3117     O3132   2.326       .  S
Eu3118     O3119   2.368       .  S
Eu3118     O3130   2.356       .  S
Eu3118     O3132   2.360       .  S
Eu3118     O3120   2.327       .  S
H3129      O3130   0.965       .  S
H3131      O3132   0.963       .  S
O3133      C3144   1.307       .  A
O3133     Eu3169   2.531       .  S
O3134      C3145   1.295       .  A
O3134     Eu3168   2.493       .  S
O3135      C3146   1.292       .  A
O3135     Eu3141   2.482       .  S
O3136      C3147   1.306       .  A
O3136     Eu3141   2.524       .  S
O3137      C3147   1.281       .  A
O3137     Eu3171   2.401       .  S
O3138      C3146   1.297       .  A
O3138     Eu3170   2.473       .  S
O3139      C3145   1.298       .  A
O3139     Eu3141   2.481       .  S
O3140      C3144   1.282       .  A
O3140     Eu3141   2.411       .  S
Eu3141     O3151   2.355       .  S
Eu3141     O3143   2.367       .  S
Eu3141     O3142   2.331       .  S
Eu3141     O3149   2.360       .  S
O3142     Eu3171   2.368       .  S
O3142     Eu3168   2.346       .  S
O3143     Eu3169   2.323       .  S
O3143     Eu3170   2.344       .  S
H3148      O3149   0.963       .  S
O3149     Eu3170   2.326       .  S
O3149     Eu3168   2.379       .  S
H3150      O3151   0.965       .  S
O3151     Eu3169   2.355       .  S
O3151     Eu3171   2.357       .  S
O3152      C3175   1.310       .  A
O3152     Eu3168   2.542       .  S
O3153      C3176   1.293       .  A
O3153     Eu3169   2.481       .  S
O3154      C3177   1.308       .  A
O3154     Eu3170   2.533       .  S
O3155      C3178   1.292       .  A
O3155     Eu3171   2.478       .  S
O3156      C3179   1.305       .  A
O3156     Eu3171   2.516       .  S
O3157      C3180   1.294       .  A
O3157     Eu3170   2.488       .  S
O3158      C3181   1.308       .  A
O3158     Eu3172   2.536       .  S
O3159      C3182   1.295       .  A
O3159     Eu3172   2.495       .  S
O3160      C3181   1.280       .  A
O3160     Eu3170   2.394       .  S
O3161      C3182   1.297       .  A
O3161     Eu3171   2.477       .  S
O3162      C3177   1.278       .  A
O3162     Eu3168   2.385       .  S
O3163      C3180   1.297       .  A
O3163     Eu3169   2.477       .  S
O3164      C3179   1.281       .  A
O3164     Eu3169   2.401       .  S
O3165      C3178   1.296       .  A
O3165     Eu3168   2.469       .  S
O3166      C3175   1.279       .  A
O3166     Eu3172   2.391       .  S
O3167      C3176   1.297       .  A
O3167     Eu3172   2.473       .  S
Eu3168     O3186   2.323       .  S
Eu3168     O3174   2.346       .  S
Eu3169     O3173   2.370       .  S
Eu3169     O3184   2.360       .  S
Eu3170     O3184   2.377       .  S
Eu3170     O3174   2.346       .  S
Eu3171     O3173   2.326       .  S
Eu3171     O3186   2.354       .  S
Eu3172     O3173   2.345       .  S
Eu3172     O3184   2.328       .  S
Eu3172     O3186   2.377       .  S
Eu3172     O3174   2.347       .  S
H3183      O3184   0.963       .  S
H3185      O3186   0.963       .  S
O3187      C3198   1.309       .  A
O3188      C3199   1.292       .  A
O3189     Eu3195   2.547       .  S
O3190      C3201   1.295       .  A
O3190     Eu3195   2.495       .  S
O3191      C3201   1.298       .  A
O3191     Eu3225   2.479       .  S
O3192      C3200   1.278       .  A
O3192     Eu3224   2.384       .  S
O3193      C3199   1.298       .  A
O3193     Eu3195   2.477       .  S
O3194      C3198   1.279       .  A
O3194     Eu3195   2.387       .  S
Eu3195     O3205   2.381       .  S
Eu3195     O3196   2.345       .  S
O3196     Eu3225   2.328       .  S
O3197     Eu3224   2.344       .  S
H3202      O3203   0.963       .  S
O3203     Eu3224   2.380       .  S
O3203     Eu3222   2.358       .  S
H3204      O3205   0.963       .  S
O3205     Eu3225   2.360       .  S
O3206      C3229   1.307       .  A
O3206     Eu3222   2.529       .  S
O3207      C3230   1.294       .  A
O3207     Eu3223   2.492       .  S
O3208      C3231   1.293       .  A
O3208     Eu3224   2.487       .  S
O3209      C3232   1.306       .  A
O3209     Eu3225   2.524       .  S
O3210      C3233   1.291       .  A
O3211      C3234   1.310       .  A
O3212      C3235   1.292       .  A
O3212     Eu3226   2.481       .  S
O3213     Eu3226   2.526       .  S
O3214      C3235   1.296       .  A
O3215      C3236   1.282   1_455  A
O3216      C3231   1.300       .  A
O3216     Eu3222   2.488       .  S
O3217      C3234   1.279       .  A
O3217     Eu3223   2.389       .  S
O3218      C3233   1.298       .  A
O3219      C3232   1.281       .  A
O3220      C3229   1.282       .  A
O3221      C3230   1.299       .  A
O3221     Eu3226   2.486       .  S
Eu3222     O3240   2.359       .  S
Eu3222     O3228   2.326       .  S
Eu3223     O3227   2.345       .  S
Eu3223     O3238   2.380       .  S
Eu3224     O3228   2.343       .  S
Eu3226     O3227   2.327       .  S
Eu3226     O3238   2.358       .  S
H3237      O3238   0.963       .  S
C3241      C3242   1.409       .  A
C3241      C3246   1.405       .  A
C3242      C3243   1.389       .  A
C3242      H3251   1.084       .  S
C3243      C3244   1.405       .  A
C3243      S3247   1.805       .  S
C3244      C3245   1.408       .  A
C3245      C3246   1.389       .  A
C3245      H3252   1.084       .  S
C3246      S3248   1.804       .  S
S3247      H3250   1.406       .  S
S3248      H3249   1.405       .  S
C3253      C3258   1.411       .  A
C3254      H3263   1.085       .  S
C3255      C3256   1.414       .  A
C3255      S3259   1.810       .  S
C3256      C3257   1.397       .  A
C3257      C3258   1.389       .  A
C3257      H3264   1.084       .  S
C3258      S3260   1.806   1_554  S
S3259      H3262   1.401       .  S
S3260      H3261   1.404   1_556  S
C3265      C3266   1.403       .  A
C3265      C3270   1.406       .  A
C3266      C3267   1.391       .  A
C3266      H3275   1.085       .  S
C3267      C3268   1.407       .  A
C3267      S3271   1.805       .  S
C3268      C3269   1.403       .  A
C3269      C3270   1.389       .  A
C3269      H3276   1.085       .  S
C3270      S3272   1.804       .  S
S3271      H3274   1.406   1_655  S
S3272      H3273   1.406       .  S
C3277      C3282   1.416       .  A
C3278      C3279   1.387   1_545  A
C3278      H3287   1.084       .  S
C3279      C3280   1.416       .  A
C3279      S3283   1.805       .  S
C3280      C3281   1.395       .  A
C3281      H3288   1.084       .  S
C3282      S3284   1.807       .  S
S3283      H3286   1.407       .  S
S3284      H3285   1.407       .  S
C3289      C3290   1.393       .  A
C3289      C3294   1.414       .  A
C3290      C3291   1.387       .  A
C3290      H3299   1.084       .  S
C3291      C3292   1.414       .  A
C3291      S3295   1.805       .  S
C3292      C3293   1.394       .  A
C3293      C3294   1.387       .  A
C3293      H3300   1.084       .  S
C3294      S3296   1.807       .  S
S3296      H3297   1.406       .  S
C3301      C3302   1.402       .  A
C3301      C3306   1.408       .  A
C3302      C3303   1.391       .  A
C3302      H3311   1.085       .  S
C3303      C3304   1.408       .  A
C3303      S3307   1.805       .  S
C3304      C3305   1.402       .  A
C3305      C3306   1.390       .  A
C3305      H3312   1.085       .  S
C3306      S3308   1.805       .  S
S3307      H3310   1.406       .  S
S3308      H3309   1.406       .  S
C3313      C3314   1.402       .  A
C3313      C3318   1.408       .  A
C3314      C3315   1.391       .  A
C3315      C3316   1.410       .  A
C3316      C3317   1.403       .  A
C3317      C3318   1.390       .  A
C3317      H3324   1.085       .  S
C3318      S3320   1.804       .  S
S3320      H3321   1.406       .  S
C3325      C3326   1.397       .  A
C3325      C3330   1.411       .  A
C3326      C3327   1.388       .  A
C3326      H3335   1.084       .  S
C3327      C3328   1.412       .  A
C3327      S3331   1.806       .  S
C3328      C3329   1.396       .  A
C3329      C3330   1.387       .  A
C3329      H3336   1.085       .  S
C3330      S3332   1.806       .  S
S3331      H3334   1.404       .  S
S3332      H3333   1.405       .  S
C3338      C3339   1.389   1_545  A
C3339      C3340   1.414       .  A
C3339      S3343   1.806   1_565  S
C3340      C3341   1.393       .  A
C3341      C3342   1.385       .  A
C3341      H3348   1.084       .  S
S3343      H3346   1.406   1_545  S
S3344      H3345   1.406       .  S
C3349      C3350   1.396       .  A
C3349      C3354   1.412       .  A
C3350      C3351   1.387       .  A
C3350      H3359   1.085       .  S
C3351      C3352   1.411       .  A
C3351      S3355   1.806       .  S
C3352      C3353   1.397       .  A
C3353      C3354   1.389       .  A
C3353      H3360   1.084       .  S
C3354      S3356   1.807       .  S
S3355      H3358   1.405       .  S
S3356      H3357   1.404       .  S
C3361      C3362   1.408       .  A
C3361      C3366   1.405       .  A
C3362      C3363   1.388       .  A
C3362      H3371   1.084       .  S
C3363      C3364   1.404       .  A
C3363      S3367   1.805       .  S
C3364      C3365   1.407       .  A
C3365      C3366   1.388       .  A
C3365      H3372   1.084       .  S
C3366      S3368   1.804       .  S
S3367      H3370   1.406       .  S
S3368      H3369   1.406       .  S
C3373      C3374   1.397       .  A
C3373      C3378   1.412       .  A
C3374      C3375   1.389       .  A
C3374      H3383   1.084       .  S
C3375      C3376   1.411       .  A
C3375      S3379   1.806       .  S
C3376      C3377   1.397       .  A
C3377      C3378   1.388       .  A
C3377      H3384   1.084       .  S
C3378      S3380   1.806       .  S
S3379      H3382   1.405       .  S
S3380      H3381   1.405       .  S
C3385      C3386   1.401       .  A
C3385      C3390   1.409       .  A
C3386      C3387   1.388       .  A
C3386      H3395   1.085       .  S
C3387      C3388   1.409       .  A
C3387      S3391   1.806       .  S
C3388      C3389   1.402       .  A
C3389      C3390   1.390       .  A
C3389      H3396   1.085       .  S
C3390      S3392   1.804       .  S
S3391      H3394   1.406       .  S
S3392      H3393   1.405       .  S
C3397      C3398   1.397       .  A
C3397      C3402   1.412       .  A
C3398      C3399   1.388       .  A
C3398      H3407   1.084       .  S
C3399      C3400   1.412       .  A
C3399      S3403   1.806       .  S
C3400      C3401   1.397       .  A
C3401      C3402   1.389       .  A
C3401      H3408   1.084       .  S
C3402      S3404   1.806       .  S
S3403      H3406   1.405       .  S
S3404      H3405   1.405       .  S
C3409      C3410   1.404       .  A
C3409      C3414   1.404       .  A
C3410      C3411   1.391       .  A
C3410      H3419   1.085       .  S
C3411      C3412   1.405       .  A
C3411      S3415   1.805       .  S
C3412      C3413   1.405       .  A
C3413      C3414   1.388       .  A
C3413      H3420   1.085   1_554  S
C3414      S3416   1.805   1_554  S
S3415      H3418   1.402       .  S
S3416      H3417   1.402       .  S
C3421      C3422   1.402       .  A
C3422      C3423   1.392       .  A
C3422      H3431   1.084       .  S
C3423      C3424   1.410       .  A
C3423      S3427   1.805       .  S
C3424      C3425   1.401       .  A
C3425      H3432   1.085       .  S
C3426      S3428   1.806       .  S
S3427      H3430   1.406       .  S
S3428      H3429   1.407       .  S
C3433      C3434   1.402       .  A
C3433      C3438   1.408       .  A
C3434      C3435   1.390       .  A
C3434      H3443   1.085       .  S
C3435      C3436   1.408       .  A
C3435      S3439   1.805       .  S
C3436      C3437   1.402       .  A
C3437      C3438   1.391       .  A
C3437      H3444   1.085       .  S
C3438      S3440   1.804       .  S
S3439      H3442   1.406       .  S
S3440      H3441   1.407       .  S
C3445      C3446   1.394       .  A
C3445      C3450   1.416       .  A
C3446      C3447   1.387       .  A
C3446      H3455   1.084       .  S
C3447      C3448   1.416       .  A
C3447      S3451   1.807       .  S
C3448      C3449   1.394       .  A
C3449      C3450   1.388       .  A
C3449      H3456   1.084       .  S
C3450      S3452   1.807       .  S
S3452      H3453   1.407       .  S
