geometry optimzed in LAMMPS
_audit_creation_date              2020-11-30 
_audit_creation_method            'lammps2cif' 
_symmetry_space_group_name_H-M    'P1' 
_symmetry_Int_Tables_number       1 
_symmetry_cell_setting            triclinic 
loop_ 
_symmetry_equiv_pos_as_xyz 
  x,y,z 
_cell_length_a                    49.65280383 
_cell_length_b                    49.610797047623095 
_cell_length_c                    49.642062222329905 
_cell_angle_alpha                 89.97386551340588 
_cell_angle_beta                  89.94078011687452 
_cell_angle_gamma                 90.07828450443613 
loop_ 
_atom_site_label 
_atom_site_type_symbol 
_atom_site_fract_x 
_atom_site_fract_y 
_atom_site_fract_z 
_atom_site_charge 
C1          C  0.13391021  0.73588727  0.97603468     0.80800
N2          N  0.10666500  0.73801092  0.97640398    -0.77500
C3          C  0.09314233  0.73819522  0.00022798     0.83200
N4          N  0.10703195  0.73662565  0.02378642    -0.77500
C5          C  0.13427609  0.73426101  0.02352279     0.83300
N6          N  0.14754045  0.73371594  0.99961252    -0.79200
C7          C  0.33542095  0.54435131  0.02218379     0.80800
N8          N  0.33835470  0.55721770  0.99829162    -0.77500
C9          C  0.34121760  0.54319630  0.97507543     0.83200
N10         N  0.34075012  0.51584478  0.97573481    -0.77500
C11         C  0.33830807  0.50266875  0.99964773     0.83300
N12         N  0.33576552  0.51698504  0.02288607    -0.79200
C13         C  0.02671364  0.24459581  0.02100797     0.80800
N14         N  0.05397583  0.24615814  0.02138410    -0.77500
C15         C  0.06799644  0.24889457  0.99798841     0.83200
N16         N  0.05467763  0.25015220  0.97406970    -0.77500
C17         C  0.02736955  0.24880928  0.97352836     0.83300
N18         N  0.01376180  0.24597514  0.99704935    -0.79200
C19         C  0.81316554  0.43693198  0.97628667     0.80800
N20         N  0.81391398  0.42355732  0.00009892    -0.77500
C21         C  0.81445751  0.43702650  0.02388809     0.83200
N22         N  0.81408073  0.46438206  0.02375934    -0.77500
C23         C  0.81329019  0.47808513  0.00003769     0.83300
N24         N  0.81303645  0.46431110  0.97632542    -0.79200
C25         C  0.83710171  0.01154191  0.05338924     0.80800
N26         N  0.83575830  0.01162523  0.02601354    -0.77500
C27         C  0.83576703  0.98796271  0.01210970     0.83200
N28         N  0.83679251  0.96417018  0.02574994    -0.77500
C29         C  0.83755827  0.96393114  0.05309135     0.83300
N30         N  0.83774449  0.98763711  0.06672517    -0.79200
C31         C  0.63397601  0.01468458  0.25599003     0.80800
N32         N  0.60690262  0.01505989  0.25196232    -0.77500
C33         C  0.59278605  0.99150805  0.25148986     0.83200
N34         N  0.60587873  0.96766740  0.25494647    -0.77500
C35         C  0.63289351  0.96719406  0.25907801     0.83300
N36         N  0.64667270  0.99077356  0.25940458    -0.79200
C37         C  0.31999974  0.96522902  0.94492298     0.80800
N38         N  0.32011465  0.98879760  0.93122037    -0.77500
C39         C  0.31819388  0.01280745  0.94397631     0.83200
N40         N  0.31581433  0.01327805  0.97122041    -0.77500
C41         C  0.31536449  0.98979313  0.98544178     0.83300
N42         N  0.31731877  0.96574950  0.97221913    -0.79200
C43         C  0.52334549  0.96636021  0.74439066     0.80800
N44         N  0.51090162  0.99047801  0.74692452    -0.77500
C45         C  0.52503225  0.01380551  0.74703464     0.83200
N46         N  0.55219572  0.01309577  0.74406795    -0.77500
C47         C  0.56510135  0.98902823  0.74166322     0.83300
N48         N  0.55061877  0.96565300  0.74186039    -0.79200
C49         C  0.02263854  0.73711377  0.02442023     0.80800
N50         N  0.04997741  0.73748875  0.02421845    -0.77500
C51         C  0.06358953  0.73861574  0.00042366     0.83200
N52         N  0.04973050  0.73932111  0.97676641    -0.77500
C53         C  0.02237582  0.73885947  0.97684835     0.83300
N54         N  0.00923503  0.73778608  0.00071304    -0.79200
C55         C  0.81552105  0.54882866  0.02370202     0.80800
N56         N  0.81341472  0.52151243  0.02356921    -0.77500
C57         C  0.81449090  0.50763016  0.00000244     0.83200
N58         N  0.81804018  0.52112483  0.97647762    -0.77500
C59         C  0.82085166  0.54832820  0.97641718     0.83300
N60         N  0.81947899  0.56208633  0.00005358    -0.79200
C61         C  0.13920695  0.24992800  0.97631913     0.80800
N62         N  0.15183030  0.25333692  0.00031606    -0.77500
C63         C  0.13748636  0.25539392  0.02350213     0.83200
N64         N  0.11024838  0.25358316  0.02263345    -0.77500
C65         C  0.09739589  0.25059408  0.99869737     0.83300
N66         N  0.11189599  0.24891552  0.97555876    -0.79200
C67         C  0.33628881  0.43156699  0.97720640     0.80800
N68         N  0.33531475  0.41872619  0.00130784    -0.77500
C69         C  0.33568812  0.43246601  0.02487261     0.83200
N70         N  0.33661584  0.45983347  0.02424074    -0.77500
C71         C  0.33764827  0.47310142  0.00025339     0.83300
N72         N  0.33747692  0.45891224  0.97678879    -0.79200
C73         C  0.82974652  0.01133012  0.94116481     0.80800
N74         N  0.82739358  0.98735496  0.92837669    -0.77500
C75         C  0.82829807  0.96380267  0.94202019     0.83200
N76         N  0.83149482  0.96402959  0.96915088    -0.77500
C77         C  0.83364969  0.98788872  0.98250677     0.83300
N78         N  0.83284186  0.01150627  0.96844799    -0.79200
C79         C  0.63631276  0.01121593  0.73827017     0.80800
N80         N  0.64915815  0.98716116  0.73800380    -0.77500
C81         C  0.63512050  0.96371659  0.73827034     0.83200
N82         N  0.60778772  0.96432007  0.73895453    -0.77500
C83         C  0.59462646  0.98835940  0.73947691     0.83300
N84         N  0.60897663  0.01179530  0.73946520    -0.79200
C85         C  0.30741219  0.01540173  0.05517034     0.80800
N86         N  0.30707935  0.99196067  0.06929660    -0.77500
C87         C  0.30944280  0.96775657  0.05663934     0.83200
N88         N  0.31197945  0.96724394  0.02937404    -0.77500
C89         C  0.31234267  0.99052439  0.01494346     0.83300
N90         N  0.31032893  0.01456348  0.02795359    -0.79200
C91         C  0.52455683  0.96713049  0.23426656     0.80800
N92         N  0.51094925  0.99065101  0.23234668    -0.77500
C93         C  0.52333924  0.01458304  0.23671862     0.83200
N94         N  0.54998664  0.01495765  0.24304108    -0.77500
C95         C  0.56387077  0.99142483  0.24526889     0.83300
N96         N  0.55101614  0.96757636  0.24107982    -0.79200
C97         C  0.05537320  0.04489666  0.73408542     0.80800
N98         N  0.05544079  0.01766864  0.73721198    -0.77500
C99         C  0.07915982  0.00392306  0.73807900     0.83200
N100        N  0.10282615  0.01756506  0.73619802    -0.77500
C101        C  0.10282146  0.04477247  0.73326143     0.83300
N102        N  0.07913731  0.05817487  0.73197912    -0.79200
C103        C  0.05494524  0.24787498  0.55405806     0.80800
N104        N  0.05521261  0.24235126  0.52717638    -0.77500
C105        C  0.07897035  0.23878214  0.51392529     0.83200
N106        N  0.10250453  0.24022420  0.52773243    -0.77500
C107        C  0.10249551  0.24583847  0.55444459     0.83300
N108        N  0.07875567  0.24955417  0.56748318    -0.79200
C109        C  0.10224337  0.93300131  0.74324029     0.80800
N110        N  0.07853230  0.92040722  0.74788949    -0.77500
C111        C  0.05524047  0.93436772  0.74972004     0.83200
N112        N  0.05553136  0.96146295  0.74616506    -0.77500
C113        C  0.07916235  0.97452399  0.74152107     0.83300
N114        N  0.10259203  0.96025652  0.74009738    -0.79200
C115        C  0.05884882  0.73359122  0.55364422     0.80800
N116        N  0.05843663  0.73439408  0.52637376    -0.77500
C117        C  0.08175240  0.73623525  0.51223833     0.83200
N118        N  0.10567492  0.73764052  0.52553543    -0.77500
C119        C  0.10622171  0.73753590  0.55291671     0.83300
N120        N  0.08274031  0.73532291  0.56682262    -0.79200
C121        C  0.10459237  0.93364635  0.25512817     0.80800
N122        N  0.08053138  0.92087630  0.25771507    -0.77500
C123        C  0.05695964  0.93446203  0.25567807     0.83200
N124        N  0.05741630  0.96135097  0.25070111    -0.77500
C125        C  0.08128422  0.97458583  0.24826543     0.83300
N126        N  0.10484949  0.96065116  0.25028026    -0.79200
C127        C  0.10359181  0.73810782  0.44106386     0.80800
N128        N  0.07950366  0.73687710  0.42829366    -0.77500
C129        C  0.05613076  0.73551270  0.44228271     0.83200
N130        N  0.05684386  0.73563712  0.46963014    -0.77500
C131        C  0.08092291  0.73659219  0.48272770     0.83300
N132        N  0.10420587  0.73791053  0.46838797    -0.79200
C133        C  0.05803293  0.04463362  0.23663009     0.80800
N134        N  0.08184417  0.05729235  0.23201571    -0.77500
C135        C  0.10543233  0.04353212  0.23283305     0.83200
N136        N  0.10515935  0.01673569  0.23844635    -0.77500
C137        C  0.08146591  0.00369169  0.24267577     0.83300
N138        N  0.05794146  0.01772898  0.24187906    -0.79200
C139        C  0.10424016  0.22655038  0.44469666     0.80800
N140        N  0.10341668  0.23131494  0.47166105    -0.77500
C141        C  0.07944768  0.23313547  0.48485467     0.83200
N142        N  0.05607253  0.23056371  0.47088574    -0.77500
C143        C  0.05664483  0.22541985  0.44402545     0.83300
N144        N  0.08068720  0.22361196  0.43111066    -0.79200
C145        C  0.33991078  0.46438572  0.44550504     0.80800
N146        N  0.33319438  0.46517102  0.47201679    -0.77500
C147        C  0.33062764  0.48913182  0.48496753     0.83200
N148        N  0.33410800  0.51248875  0.47110013    -0.77500
C149        C  0.34094059  0.51198155  0.44460579     0.83300
N150        N  0.34379178  0.48788515  0.43187004    -0.79200
C151        C  0.13436431  0.46591083  0.25422744     0.80800
N152        N  0.14832692  0.48902748  0.25019934    -0.77500
C153        C  0.13560788  0.51295793  0.24695202     0.83200
N154        N  0.10827376  0.51380128  0.24862065    -0.77500
C155        C  0.09397226  0.49072154  0.25270905     0.83300
N156        N  0.10708475  0.46679990  0.25532893    -0.79200
O157        O  0.28974422  0.74055613  0.17155711    -0.85900
O158        O  0.28688221  0.73722243  0.32431031    -0.86100
O159        O  0.25467007  0.69588156  0.24371585    -0.87800
O160        O  0.25607598  0.78308881  0.25223970    -0.86500
O161        O  0.28883694  0.81581841  0.25285063    -0.86100
O162        O  0.28741074  0.66331734  0.24493159    -0.87500
O163        O  0.25503129  0.73666460  0.29080493    -0.86000
O164        O  0.25633953  0.74055315  0.20328095    -0.85600
Zr165      Zr  0.27767530  0.73913873  0.24764014     2.84300
O166        O  0.30443741  0.76540839  0.27624879    -1.07500
O167        O  0.30532550  0.71253636  0.22055627    -1.08300
C168        C  0.26473828  0.74054762  0.17858964     1.07200
C169        C  0.26229659  0.73653691  0.31574151     1.07100
C170        C  0.26261047  0.67111111  0.24340421     1.10100
C171        C  0.26407621  0.80785532  0.25377147     1.07900
H172        H  0.29236074  0.69927807  0.28588624     0.33400
O173        O  0.30393958  0.71099282  0.27505535    -1.28500
H174        H  0.29377776  0.77909175  0.21056395     0.33100
O175        O  0.30507881  0.76726473  0.22164266    -1.30200
O176        O  0.37485379  0.73736182  0.32557066    -0.85900
O177        O  0.37668743  0.74339506  0.17249591    -0.87400
O178        O  0.33037446  0.66119625  0.29125831    -0.86000
O179        O  0.33508791  0.81433856  0.29443679    -0.86100
O180        O  0.33226723  0.81663784  0.20721248    -0.85800
O181        O  0.33181136  0.66323473  0.20375197    -0.85600
O182        O  0.40807654  0.69472114  0.24935718    -0.86000
O183        O  0.40918614  0.78224874  0.24725043    -0.85400
O184        O  0.37513495  0.66212397  0.25057835    -0.86500
O185        O  0.37610160  0.81429726  0.24695971    -0.85600
O186        O  0.33261333  0.69323339  0.32454912    -0.86000
O187        O  0.33233919  0.69684959  0.17200085    -0.85800
O188        O  0.33247712  0.78497905  0.17354315    -0.85400
O189        O  0.33185302  0.78069011  0.32608427    -0.85800
O190        O  0.40811562  0.73759430  0.29336657    -0.86100
O191        O  0.40893058  0.74046668  0.20546292    -0.87500
Zr192      Zr  0.33127065  0.73747038  0.30301620     2.83100
Zr193      Zr  0.33289523  0.74047269  0.19452424     2.83500
Zr194      Zr  0.33163320  0.68456414  0.24778589     2.84100
Zr195      Zr  0.33224483  0.79310396  0.25022870     2.83400
Zr196      Zr  0.38647677  0.73866456  0.24920722     2.84200
O197        O  0.35968827  0.76670358  0.22270382    -1.08000
O198        O  0.35880776  0.71098709  0.27561045    -1.07500
C199        C  0.39977342  0.73733805  0.31805257     1.07100
C200        C  0.40137329  0.74284347  0.18065531     1.09800
C201        C  0.33166680  0.66856952  0.31622795     1.07300
C202        C  0.33411955  0.80562070  0.31894163     1.07700
C203        C  0.33227845  0.80956235  0.18218265     1.07300
C204        C  0.33184333  0.67179666  0.17919711     1.06800
C205        C  0.39991630  0.67004197  0.25066702     1.07200
C206        C  0.40099379  0.80691158  0.24593718     1.06700
H207        H  0.37111494  0.70080789  0.20958852     0.33400
O208        O  0.35963074  0.71197503  0.22108725    -1.29100
H209        H  0.37075374  0.77636166  0.28844496     0.33400
O210        O  0.35926743  0.76532780  0.27697719    -1.30500
C211        C  0.52464286  0.24734997  0.47313522     0.80800
N212        N  0.51053309  0.24455513  0.49630917    -0.77500
C213        C  0.52323140  0.24227996  0.52033394     0.83200
N214        N  0.55057286  0.24342740  0.52118924    -0.77500
C215        C  0.56506376  0.24603276  0.49804362     0.83300
N216        N  0.55201622  0.24769185  0.47396557    -0.79200
C217        C  0.34807544  0.04277895  0.47210085     0.80800
N218        N  0.34510180  0.01558160  0.47351170    -0.77500
C219        C  0.34223389  0.00307044  0.49774416     0.83200
N220        N  0.34205917  0.01794561  0.52073609    -0.77500
C221        C  0.34519453  0.04513160  0.51958555     0.83300
N222        N  0.34825046  0.05735021  0.49529406    -0.79200
O223        O  0.32974720  0.16074211  0.78920057    -0.85900
O224        O  0.33177455  0.31391143  0.79351058    -0.86100
O225        O  0.37457809  0.23538635  0.82358668    -0.87800
O226        O  0.28720539  0.23897165  0.82409012    -0.86500
O227        O  0.25367955  0.23821896  0.79232345    -0.86100
O228        O  0.40625569  0.23725671  0.79005148    -0.87500
O229        O  0.33272864  0.27998190  0.82493367    -0.86000
O230        O  0.33006931  0.19262593  0.82269574    -0.85600
Zr231      Zr  0.33067083  0.23690018  0.80160786     2.84300
O232        O  0.30311695  0.26492154  0.77577335    -1.07500
O233        O  0.35716607  0.21025469  0.77335772    -1.08300
C234        C  0.32987796  0.16801817  0.81421460     1.07200
C235        C  0.33304738  0.30507586  0.81800110     1.07100
C236        C  0.39917910  0.23603297  0.81510838     1.10100
C237        C  0.26223616  0.23919339  0.81682448     1.07900
H238        H  0.36913007  0.27603035  0.78615556     0.33400
O239        O  0.35740393  0.26517936  0.77491559    -1.28500
H240        H  0.29134481  0.19884375  0.78563186     0.33100
O241        O  0.30250630  0.21026116  0.77458582    -1.30200
O242        O  0.32971930  0.31619025  0.70539623    -0.85900
O243        O  0.32837583  0.16333305  0.70111894    -0.87400
O244        O  0.40579493  0.28219211  0.74553285    -0.86000
O245        O  0.25293335  0.28206787  0.75248114    -0.86100
O246        O  0.25304136  0.19478685  0.74638054    -0.85800
O247        O  0.40611292  0.19527073  0.74608857    -0.85600
O248        O  0.37189418  0.24092562  0.67063984    -0.86000
O249        O  0.28446047  0.23964438  0.67183306    -0.85400
O250        O  0.40524873  0.23854706  0.70253770    -0.86500
O251        O  0.25231721  0.23778217  0.70508108    -0.85600
O252        O  0.37360095  0.31522930  0.74736864    -0.86000
O253        O  0.37342919  0.16262201  0.74567304    -0.85800
O254        O  0.28542486  0.16199385  0.74383984    -0.85400
O255        O  0.28564044  0.31486374  0.75225847    -0.85800
O256        O  0.32763650  0.28418085  0.67200468    -0.86100
O257        O  0.32695099  0.19723091  0.66971894    -0.87500
Zr258      Zr  0.32968199  0.29313308  0.74891431     2.83100
Zr259      Zr  0.32928639  0.18402863  0.74587148     2.83500
Zr260      Zr  0.38357474  0.23849572  0.74647229     2.84100
Zr261      Zr  0.27525950  0.23851253  0.74847021     2.83400
Zr262      Zr  0.32840523  0.24014468  0.69334446     2.84200
O263        O  0.30178695  0.21211268  0.72010352    -1.08000
O264        O  0.35626696  0.26664412  0.72046496    -1.07500
C265        C  0.32853962  0.30874526  0.68045943     1.07100
C266        C  0.32726070  0.17213309  0.67658750     1.09800
C267        C  0.39828965  0.30709566  0.74593319     1.07300
C268        C  0.26086824  0.30684827  0.75369881     1.07700
C269        C  0.26068074  0.17000044  0.74411678     1.07300
C270        C  0.39826944  0.17050435  0.74593408     1.06800
C271        C  0.39682433  0.23978471  0.67798200     1.07200
C272        C  0.25987614  0.23826504  0.68017798     1.06700
H273        H  0.36716843  0.20087464  0.70709190     0.33400
O274        O  0.35611863  0.21188636  0.71888628    -1.29100
H275        H  0.28987391  0.27853620  0.71069317     0.33400
O276        O  0.30152586  0.26694879  0.72141742    -1.30500
C277        C  0.52282349  0.72501902  0.47741327     0.80800
N278        N  0.50917697  0.72805811  0.50092439    -0.77500
C279        C  0.52239547  0.73067351  0.52474504     0.83200
N280        N  0.54975957  0.72999588  0.52480525    -0.77500
C281        C  0.56368655  0.72707332  0.50136697     0.83300
N282        N  0.55015326  0.72482388  0.47770348    -0.79200
C283        C  0.34351390  0.93306048  0.52399115     0.80800
N284        N  0.34208720  0.91897114  0.50066290    -0.77500
C285        C  0.33971713  0.93166167  0.47664827     0.83200
N286        N  0.33915093  0.95898392  0.47580734    -0.77500
C287        C  0.34064947  0.97349106  0.49902153     0.83300
N288        N  0.34260186  0.96046750  0.52314332    -0.79200
C289        C  0.31552299  0.46658924  0.55451608     0.80800
N290        N  0.31248213  0.49069457  0.56707444    -0.77500
C291        C  0.31526884  0.51420949  0.55347305     0.83200
N292        N  0.32109330  0.51369308  0.52674767    -0.77500
C293        C  0.32379687  0.48973672  0.51374932     0.83300
N294        N  0.32108858  0.46629858  0.52771434    -0.79200
C295        C  0.13700065  0.46448455  0.77917593     0.80800
N296        N  0.10960242  0.46477325  0.77853497    -0.77500
C297        C  0.09609859  0.48858098  0.77705097     0.83200
N298        N  0.11006015  0.51204019  0.77539262    -0.77500
C299        C  0.13731867  0.51189265  0.77571288     0.83300
N300        N  0.15073821  0.48815840  0.77750198    -0.79200
O301        O  0.28230098  0.73657193  0.82495050    -0.85900
O302        O  0.28826468  0.73919608  0.67164404    -0.86100
O303        O  0.25139912  0.78020499  0.74904114    -0.87800
O304        O  0.25301835  0.69270486  0.74731806    -0.86500
O305        O  0.28635199  0.66079604  0.74791649    -0.86100
O306        O  0.28315128  0.81389155  0.75006762    -0.87500
O307        O  0.25464121  0.73567595  0.70326565    -0.86000
O308        O  0.25021319  0.73616264  0.79173772    -0.85600
Zr309      Zr  0.27420115  0.73696263  0.74853901     2.84300
O310        O  0.30295211  0.71125216  0.72175201    -1.07500
O311        O  0.29983124  0.76426787  0.77708975    -1.08300
C312        C  0.25764814  0.73651066  0.81672469     1.07200
C313        C  0.26337446  0.73676523  0.67869167     1.07100
C314        C  0.25862743  0.80520274  0.74964215     1.10100
C315        C  0.26138638  0.66805362  0.74733736     1.07900
H316        H  0.29038853  0.77687738  0.71099027     0.33400
O317        O  0.30151428  0.76556011  0.72256246    -1.28500
H318        H  0.28958322  0.69804601  0.78705888     0.33100
O319        O  0.30088586  0.70977937  0.77631095    -1.30200
O320        O  0.37550362  0.74079568  0.67609189    -0.85900
O321        O  0.36929975  0.73798785  0.82891667    -0.87400
O322        O  0.33037505  0.81613420  0.70816991    -0.86000
O323        O  0.32690522  0.66319509  0.70494760    -0.86100
O324        O  0.33001601  0.66051959  0.79210523    -0.85800
O325        O  0.32372898  0.81327025  0.79589338    -0.85600
O326        O  0.40392992  0.78412536  0.75239195    -0.86000
O327        O  0.40553802  0.69609432  0.75241603    -0.85400
O328        O  0.37036201  0.81584844  0.75344996    -0.86500
O329        O  0.37366966  0.66277596  0.74793296    -0.85600
O330        O  0.33153755  0.78381928  0.67513695    -0.86000
O331        O  0.32405925  0.78024343  0.82823232    -0.85800
O332        O  0.32793541  0.69270329  0.82512741    -0.85400
O333        O  0.32772367  0.69613200  0.67259901    -0.85800
O334        O  0.40710635  0.74034147  0.70994750    -0.86100
O335        O  0.40286892  0.74074086  0.79714603    -0.87500
Zr336      Zr  0.33055882  0.73945676  0.69603486     2.83100
Zr337      Zr  0.32678953  0.73721243  0.80457209     2.83500
Zr338      Zr  0.32726585  0.79265339  0.75136366     2.84100
Zr339      Zr  0.32958953  0.68407969  0.74916215     2.83400
Zr340      Zr  0.38276882  0.73958886  0.75237446     2.84200
O341        O  0.35550814  0.71095561  0.77803850    -1.08000
O342        O  0.35608232  0.76670900  0.72467587    -1.07500
C343        C  0.39995607  0.74086457  0.68499686     1.07100
C344        C  0.39420217  0.73992027  0.82169414     1.09800
C345        C  0.33167270  0.80854671  0.68328865     1.07300
C346        C  0.32597239  0.67125456  0.68021973     1.07700
C347        C  0.32925331  0.66799831  0.81698514     1.07300
C348        C  0.32291043  0.80513605  0.82065147     1.06800
C349        C  0.39536020  0.80872901  0.75312870     1.07200
C350        C  0.39820677  0.67122779  0.74977813     1.06700
H351        H  0.36478833  0.77735823  0.79104183     0.33400
O352        O  0.35425669  0.76587412  0.77913632    -1.29100
H353        H  0.36915541  0.70116068  0.71195302     0.33400
O354        O  0.35742381  0.71211263  0.72332886    -1.30500
C355        C  0.82843338  0.51312464  0.44257493     0.80800
N356        N  0.83070708  0.48953390  0.42890908    -0.77500
C357        C  0.83098455  0.46548827  0.44190610     0.83200
N358        N  0.82860841  0.46505765  0.46915816    -0.77500
C359        C  0.82644871  0.48847061  0.48318650     0.83300
N360        N  0.82629317  0.51240057  0.46983407    -0.79200
C361        C  0.02374287  0.51542322  0.25833947     0.80800
N362        N  0.05108103  0.51519354  0.25651101    -0.77500
C363        C  0.06446663  0.49136435  0.25425437     0.83200
N364        N  0.05042038  0.46785814  0.25333716    -0.77500
C365        C  0.02312894  0.46800612  0.25429799     0.83300
N366        N  0.01001723  0.49180342  0.25699173    -0.79200
C367        C  0.60344654  0.54387969  0.26990841     0.80800
N368        N  0.60346079  0.51654137  0.26823965    -0.77500
C369        C  0.57983664  0.50274970  0.26613526     0.83200
N370        N  0.55613188  0.51640126  0.26529620    -0.77500
C371        C  0.55601687  0.54368076  0.26697415     0.83300
N372        N  0.57959857  0.55714024  0.26940495    -0.79200
C373        C  0.60532524  0.73638842  0.05173472     0.80800
N374        N  0.58234100  0.74145270  0.06549517    -0.77500
C375        C  0.55885599  0.74675261  0.05276161     0.83200
N376        N  0.55827642  0.74623867  0.02535402    -0.77500
C377        C  0.58124772  0.74126456  0.01110290     0.83300
N378        N  0.60476723  0.73641635  0.02438533    -0.79200
O379        O  0.83176490  0.81469900  0.20280352    -0.85900
O380        O  0.82542537  0.66184095  0.21019260    -0.86100
O381        O  0.87168378  0.73636709  0.17435541    -0.87800
O382        O  0.78360525  0.73677595  0.17389150    -0.86500
O383        O  0.75127189  0.73850153  0.20686829    -0.86100
O384        O  0.90440935  0.73972278  0.20684958    -0.87500
O385        O  0.82639305  0.69321552  0.17610640    -0.86000
O386        O  0.83143356  0.78079479  0.17142914    -0.85600
Zr387      Zr  0.82762765  0.73836469  0.19587796     2.84300
O388        O  0.80056574  0.71259520  0.22440266    -1.07500
O389        O  0.85479735  0.76672412  0.22195635    -1.08300
C390        C  0.83305531  0.80585039  0.17831115     1.07200
C391        C  0.82528029  0.66879745  0.18517062     1.07100
C392        C  0.89647151  0.73761754  0.18219052     1.10100
C393        C  0.75883876  0.73692693  0.18202502     1.07900
H394        H  0.86644060  0.70054478  0.21307552     0.33400
O395        O  0.85515907  0.71240613  0.22394355    -1.28500
H396        H  0.78901813  0.77841198  0.20946849     0.33100
O397        O  0.80046678  0.76727140  0.22160563    -1.30200
O398        O  0.83137361  0.66655259  0.29692850    -0.85900
O399        O  0.82550211  0.81961568  0.29068434    -0.87400
O400        O  0.90469563  0.69753191  0.25241967    -0.86000
O401        O  0.75166696  0.69716801  0.25098531    -0.86100
O402        O  0.75152347  0.78515094  0.25009817    -0.85800
O403        O  0.90353697  0.78504407  0.24844189    -0.85600
O404        O  0.87148632  0.74299055  0.32713938    -0.86000
O405        O  0.78409417  0.74150782  0.32649055    -0.85400
O406        O  0.90392511  0.74197646  0.29420561    -0.86500
O407        O  0.75110130  0.74057174  0.29421538    -0.85600
O408        O  0.87210825  0.66471369  0.25214034    -0.86000
O409        O  0.87152856  0.81815287  0.24778247    -0.85800
O410        O  0.78433868  0.81753540  0.24682973    -0.85400
O411        O  0.78412690  0.66442922  0.25377931    -0.85800
O412        O  0.82989035  0.70018583  0.32866770    -0.86100
O413        O  0.82571855  0.78774424  0.32419531    -0.87500
Zr414      Zr  0.82799600  0.68651605  0.25237353     2.83100
Zr415      Zr  0.82794877  0.79531347  0.24791705     2.83500
Zr416      Zr  0.88197123  0.74098571  0.25035164     2.84100
Zr417      Zr  0.77356177  0.74108599  0.25040928     2.83400
Zr418      Zr  0.82787852  0.74289279  0.30449584     2.84200
O419        O  0.80077036  0.76928407  0.27644401    -1.08000
O420        O  0.85507334  0.71469154  0.27852644    -1.07500
C421        C  0.83166287  0.67525371  0.32142278     1.07100
C422        C  0.82488353  0.81236551  0.31570038     1.09800
C423        C  0.89693016  0.67267171  0.25258927     1.07300
C424        C  0.75936839  0.67235757  0.25254987     1.07700
C425        C  0.75951200  0.80994200  0.24852059     1.07300
C426        C  0.89623989  0.81004370  0.24780893     1.06800
C427        C  0.89623836  0.74243798  0.31908174     1.07200
C428        C  0.75921317  0.74044579  0.31895346     1.06700
H429        H  0.86637571  0.78126651  0.28759883     0.33400
O430        O  0.85514713  0.76949004  0.27660512    -1.29100
H431        H  0.78947952  0.70332606  0.29036056     0.33400
O432        O  0.80064588  0.71453231  0.27856200    -1.30500
C433        C  0.63403457  0.72991693  0.52537715     0.80800
N434        N  0.64772964  0.72764737  0.50193862    -0.77500
C435        C  0.63465265  0.72444715  0.47826641     0.83200
N436        N  0.60725868  0.72434019  0.47806919    -0.77500
C437        C  0.59324836  0.72664635  0.50157545     0.83300
N438        N  0.60672841  0.72937437  0.52524557    -0.79200
C439        C  0.82537165  0.93520612  0.52218275     0.80800
N440        N  0.82839062  0.96240538  0.52275930    -0.77500
C441        C  0.82809989  0.97677642  0.49944569     0.83200
N442        N  0.82446828  0.96384894  0.47555429    -0.77500
C443        C  0.82082576  0.93671328  0.47490708     0.83300
N444        N  0.82177979  0.92251416  0.49826346    -0.79200
C445        C  0.60441089  0.54645374  0.73282726     0.80800
N446        N  0.58100752  0.56031523  0.73252581    -0.77500
C447        C  0.55691580  0.54762405  0.73221072     0.83200
N448        N  0.55632927  0.52020683  0.73283941    -0.77500
C449        C  0.57972510  0.50587520  0.73317638     0.83300
N450        N  0.60378682  0.51909574  0.73322801    -0.79200
C451        C  0.55581048  0.73732221  0.94097543     0.80800
N452        N  0.55657849  0.74027539  0.96819917    -0.77500
C453        C  0.58049684  0.73966815  0.98150755     0.83200
N454        N  0.60376516  0.73667465  0.96738831    -0.77500
C455        C  0.60325778  0.73382376  0.94018426     0.83300
N456        N  0.57922265  0.73412305  0.92709482    -0.79200
C457        C  0.82423054  0.51115515  0.55416286     0.80800
N458        N  0.82133375  0.48720513  0.56682961    -0.77500
C459        C  0.82010211  0.46357018  0.55319859     0.83200
N460        N  0.82175464  0.46404279  0.52589680    -0.77500
C461        C  0.82442113  0.48795922  0.51265811     0.83300
N462        N  0.82563657  0.51142672  0.52683066    -0.79200
C463        C  0.02601546  0.51381431  0.77571839     0.80800
N464        N  0.01246768  0.49049407  0.77150516    -0.77500
C465        C  0.02532370  0.46652619  0.76924348     0.83200
N466        N  0.05256816  0.46590524  0.77149097    -0.77500
C467        C  0.06659687  0.48910998  0.77568639     0.83300
N468        N  0.05328536  0.51304901  0.77758742    -0.79200
O469        O  0.87227149  0.73571121  0.82495359    -0.85900
O470        O  0.87768302  0.74037718  0.67230145    -0.86100
O471        O  0.90792861  0.69511532  0.75144106    -0.87800
O472        O  0.90686540  0.78276447  0.75185593    -0.86500
O473        O  0.87442744  0.81563754  0.75140339    -0.86100
O474        O  0.87548073  0.66224262  0.74839992    -0.87500
O475        O  0.90914796  0.73984916  0.70595541    -0.86000
O476        O  0.90611669  0.73695170  0.79341191    -0.85600
Zr477      Zr  0.88548903  0.73870109  0.74900852     2.84300
O478        O  0.85980968  0.76646221  0.72090758    -1.07500
O479        O  0.85739836  0.71115558  0.77478156    -1.08300
C480        C  0.89731024  0.73563183  0.81786252     1.07200
C481        C  0.90223585  0.74033655  0.68088701     1.07100
C482        C  0.90016058  0.67025736  0.75086760     1.10100
C483        C  0.89907915  0.80760840  0.75256162     1.07900
H484        H  0.87151431  0.70023165  0.70918449     0.33400
O485        O  0.85971959  0.71148578  0.72032303    -1.28500
H486        H  0.86822650  0.77676490  0.78787163     0.33100
O487        O  0.85757651  0.76568478  0.77578477    -1.30200
O488        O  0.79000146  0.73859986  0.66972760    -0.85900
O489        O  0.78517641  0.73742121  0.82239652    -0.87400
O490        O  0.83071047  0.66313936  0.70200823    -0.86000
O491        O  0.83267655  0.81614468  0.70406858    -0.86100
O492        O  0.82621595  0.81371204  0.79142382    -0.85800
O493        O  0.83110380  0.66088208  0.78983511    -0.85600
O494        O  0.75526476  0.69541533  0.74212666    -0.86000
O495        O  0.75516292  0.78308886  0.74431619    -0.85400
O496        O  0.78755682  0.66233577  0.74340525    -0.86500
O497        O  0.78804410  0.81539988  0.74575203    -0.85600
O498        O  0.83302214  0.69627774  0.66972641    -0.86000
O499        O  0.82920376  0.69367275  0.82237172    -0.85800
O500        O  0.82622250  0.78133119  0.82424295    -0.85400
O501        O  0.83274658  0.78346079  0.67141221    -0.85800
O502        O  0.75658615  0.73835086  0.70158655    -0.86100
O503        O  0.75352969  0.73974744  0.78882896    -0.87500
Zr504      Zr  0.83326172  0.73939005  0.69296271     2.83100
Zr505      Zr  0.82936138  0.73788113  0.80136375     2.83500
Zr506      Zr  0.83143253  0.68413336  0.74643036     2.84100
Zr507      Zr  0.83136979  0.79292557  0.74753618     2.83400
Zr508      Zr  0.77718722  0.73902092  0.74570071     2.84200
O509        O  0.80332956  0.76579440  0.77390000    -1.08000
O510        O  0.80529136  0.71212771  0.71917105    -1.07500
C511        C  0.76500505  0.73814570  0.67700806     1.07100
C512        C  0.76068865  0.73883517  0.81384264     1.09800
C513        C  0.83143322  0.67145141  0.67733643     1.07300
C514        C  0.83237708  0.80828813  0.67923214     1.07700
C515        C  0.82472649  0.80607818  0.81624523     1.07300
C516        C  0.83014650  0.66885431  0.81460603     1.06800
C517        C  0.76295712  0.67057930  0.74154064     1.07200
C518        C  0.76319644  0.80791638  0.74449013     1.06700
H519        H  0.79121012  0.69928325  0.78397615     0.33400
O520        O  0.80295408  0.71073205  0.77328483    -1.29100
H521        H  0.79408902  0.77758669  0.70768700     0.33400
O522        O  0.80497074  0.76632928  0.71919608    -1.30500
C523        C  0.55613654  0.43213762  0.26172241     0.80800
N524        N  0.55622830  0.45944378  0.26375490    -0.77500
C525        C  0.57990325  0.47326451  0.26428118     0.83200
N526        N  0.60361016  0.45971153  0.26263186    -0.77500
C527        C  0.60364751  0.43251464  0.25991980     0.83300
N528        N  0.57993840  0.41890256  0.25946946    -0.79200
C529        C  0.60030403  0.23756706  0.05664653     0.80800
N530        N  0.57652158  0.23245858  0.06919490    -0.77500
C531        C  0.55359138  0.22808141  0.05491765     0.83200
N532        N  0.55452401  0.22902091  0.02754996    -0.77500
C533        C  0.57825940  0.23376155  0.01469125     0.83300
N534        N  0.60105632  0.23800850  0.02931260    -0.79200
O535        O  0.87375580  0.24240615  0.17071074    -0.85900
O536        O  0.87587443  0.23653028  0.32394011    -0.86100
O537        O  0.90848263  0.28265666  0.24855767    -0.87800
O538        O  0.90790823  0.19575710  0.24684700    -0.86500
O539        O  0.87545953  0.16276191  0.24542594    -0.86100
O540        O  0.87567004  0.31514425  0.24945465    -0.87500
O541        O  0.90763678  0.23636615  0.29050351    -0.86000
O542        O  0.90709683  0.24067585  0.20266689    -0.85600
Zr543      Zr  0.88553342  0.23937106  0.24674341     2.84300
O544        O  0.85893219  0.21167323  0.27386653    -1.07500
O545        O  0.85811442  0.26714547  0.22017230    -1.08300
C546        C  0.89872214  0.24202194  0.17806744     1.07200
C547        C  0.90046117  0.23557164  0.31554509     1.07100
C548        C  0.90052601  0.30738684  0.24962803     1.10100
C549        C  0.90019609  0.17090420  0.24613386     1.07900
H550        H  0.87074184  0.27728458  0.28667332     0.33400
O551        O  0.85922079  0.26628572  0.27508931    -1.28500
H552        H  0.86933751  0.20159229  0.20745723     0.33100
O553        O  0.85808083  0.21266862  0.21923193    -1.30200
O554        O  0.78866014  0.24089033  0.32455244    -0.85900
O555        O  0.78559293  0.24268263  0.17184779    -0.87400
O556        O  0.83059315  0.31440110  0.29306475    -0.86000
O557        O  0.83337681  0.16135317  0.28980451    -0.86100
O558        O  0.83024348  0.16393943  0.20213896    -0.85800
O559        O  0.82951113  0.31726827  0.20551109    -0.85600
O560        O  0.75576965  0.28307256  0.25131614    -0.86000
O561        O  0.75483954  0.19510656  0.24872054    -0.85400
O562        O  0.78791661  0.31617702  0.25123198    -0.86500
O563        O  0.78786394  0.16282251  0.24796370    -0.85600
O564        O  0.83253705  0.28142330  0.32542187    -0.86000
O565        O  0.82833161  0.28494878  0.17246457    -0.85800
O566        O  0.83023304  0.19691039  0.16965403    -0.85400
O567        O  0.83285997  0.19407715  0.32235745    -0.85800
O568        O  0.75520523  0.23999699  0.29266228    -0.86100
O569        O  0.75396717  0.24249756  0.20553822    -0.87500
Zr570      Zr  0.83220497  0.23844590  0.30185790     2.83100
Zr571      Zr  0.83008829  0.24033914  0.19313925     2.83500
Zr572      Zr  0.83148958  0.29367574  0.24862232     2.84100
Zr573      Zr  0.83152978  0.18489406  0.24658014     2.83400
Zr574      Zr  0.77707756  0.23900262  0.24867875     2.84200
O575        O  0.80340610  0.21214847  0.22015168    -1.08000
O576        O  0.80467313  0.26592597  0.27562655    -1.07500
C577        C  0.76369542  0.24132340  0.31721104     1.07100
C578        C  0.76101204  0.24392920  0.18051552     1.09800
C579        C  0.83123325  0.30626003  0.31778704     1.07300
C580        C  0.83348923  0.16923832  0.31462136     1.07700
C581        C  0.83016655  0.17197987  0.17735062     1.07300
C582        C  0.82792886  0.30969061  0.18065018     1.06800
C583        C  0.76320813  0.30804152  0.25208324     1.07200
C584        C  0.76301042  0.17037379  0.24885290     1.06700
H585        H  0.79218479  0.27854290  0.21113996     0.33400
O586        O  0.80368078  0.26692209  0.22163517    -1.29100
H587        H  0.79346765  0.19988293  0.28653349     0.33400
O588        O  0.80456676  0.21129397  0.27505741    -1.30500
C589        C  0.55461155  0.43600869  0.74203825     0.80800
N590        N  0.55508950  0.46315696  0.73830223    -0.77500
C591        C  0.57907343  0.47634131  0.73568465     0.83200
N592        N  0.60258581  0.46225005  0.73689424    -0.77500
C593        C  0.60218961  0.43511954  0.74056409     0.83300
N594        N  0.57820674  0.42240813  0.74303755    -0.79200
C595        C  0.55866946  0.23290819  0.94238394     0.80800
N596        N  0.58329596  0.23504132  0.93074309    -0.77500
C597        C  0.60603104  0.23618909  0.94578099     0.83200
N598        N  0.60413483  0.23565699  0.97298228    -0.77500
C599        C  0.57966955  0.23388886  0.98511561     0.83300
N600        N  0.55690495  0.23252986  0.96979658    -0.79200
C601        C  0.63502097  0.24877695  0.52419078     0.80800
N602        N  0.60766762  0.24759870  0.52327579    -0.77500
C603        C  0.59470290  0.24696582  0.49907561     0.83200
N604        N  0.60926420  0.24698839  0.47580228    -0.77500
C605        C  0.63662320  0.24775105  0.47651440     0.83300
N606        N  0.64909048  0.24865894  0.50080662    -0.79200
C607        C  0.83911034  0.04686175  0.47645216     0.80800
N608        N  0.83836250  0.06026030  0.50018989    -0.77500
C609        C  0.83495639  0.04701786  0.52381972     0.83200
N610        N  0.83192698  0.01978244  0.52367767    -0.77500
C611        C  0.83219991  0.00608359  0.49991644     0.83300
N612        N  0.83562477  0.01971275  0.47638592    -0.79200
O613        O  0.87592003  0.23988682  0.82487044    -0.85900
O614        O  0.87000499  0.24341946  0.67159458    -0.86100
O615        O  0.90719942  0.19885744  0.74805756    -0.87800
O616        O  0.90524494  0.28635401  0.74932315    -0.86500
O617        O  0.87166430  0.31801716  0.75204661    -0.86100
O618        O  0.87539582  0.16530309  0.74871537    -0.87500
O619        O  0.90356651  0.24351957  0.70330332    -0.86000
O620        O  0.90783213  0.24199113  0.79144580    -0.85600
Zr621      Zr  0.88396416  0.24212311  0.74852789     2.84300
O622        O  0.85527774  0.26888123  0.72250326    -1.07500
O623        O  0.85847531  0.21389916  0.77646893    -1.08300
C624        C  0.90051082  0.24082635  0.81640783     1.07200
C625        C  0.89500538  0.24379266  0.67866716     1.07100
C626        C  0.90000359  0.17381039  0.74818661     1.10100
C627        C  0.89665861  0.31082947  0.75137611     1.07900
H628        H  0.86808535  0.20345415  0.71032834     0.33400
O629        O  0.85680141  0.21425903  0.72204843    -1.28500
H630        H  0.86833477  0.27958744  0.78831075     0.33100
O631        O  0.85705697  0.26826317  0.77708601    -1.30200
O632        O  0.78314679  0.23918405  0.67576088    -0.85900
O633        O  0.78864584  0.23831609  0.82870546    -0.87400
O634        O  0.83064095  0.16418473  0.70620019    -0.86000
O635        O  0.82826851  0.31709313  0.70697967    -0.86100
O636        O  0.82883627  0.31679673  0.79514169    -0.85800
O637        O  0.83395302  0.16375043  0.79348078    -0.85600
O638        O  0.75386456  0.19460720  0.75187514    -0.86000
O639        O  0.75219085  0.28237748  0.75535951    -0.85400
O640        O  0.78767049  0.16329992  0.75033003    -0.86500
O641        O  0.78402040  0.31590526  0.75382161    -0.85600
O642        O  0.83003117  0.19733419  0.67388020    -0.86000
O643        O  0.83271033  0.19622859  0.82648266    -0.85800
O644        O  0.83079776  0.28372511  0.82731253    -0.85400
O645        O  0.82585113  0.28429648  0.67434686    -0.85800
O646        O  0.75109213  0.24015175  0.70910750    -0.86100
O647        O  0.75521662  0.23751265  0.79692665    -0.87500
Zr648      Zr  0.82773328  0.24087374  0.69633677     2.83100
Zr649      Zr  0.83129567  0.24007055  0.80462192     2.83500
Zr650      Zr  0.83107566  0.18628489  0.74994892     2.84100
Zr651      Zr  0.82833615  0.29496154  0.75106166     2.83400
Zr652      Zr  0.77514816  0.23907630  0.75212000     2.84200
O653        O  0.80248333  0.26681376  0.77874283    -1.08000
O654        O  0.80196219  0.21255679  0.72377476    -1.07500
C655        C  0.75848002  0.23962365  0.68411594     1.07100
C656        C  0.76367957  0.23727556  0.82152810     1.09800
C657        C  0.83076790  0.17247137  0.68155004     1.07300
C658        C  0.82683468  0.30899025  0.68225174     1.07700
C659        C  0.82984726  0.30868860  0.81988500     1.07300
C660        C  0.83378427  0.17158091  0.81828145     1.06800
C661        C  0.76253125  0.17005703  0.75102267     1.07200
C662        C  0.75944002  0.30740899  0.75543274     1.06700
H663        H  0.79317924  0.20038236  0.78979127     0.33400
O664        O  0.80384873  0.21227912  0.77821542    -1.29100
H665        H  0.78873354  0.27876197  0.71352870     0.33400
O666        O  0.80072558  0.26747237  0.72439620    -1.30500
O667        O  0.28283098  0.24322465  0.17557150    -0.85900
O668        O  0.28759914  0.23596047  0.32815691    -0.86100
O669        O  0.25258902  0.19502768  0.24923247    -0.87800
O670        O  0.25170669  0.28304754  0.25254942    -0.86500
O671        O  0.28465289  0.31547111  0.25243176    -0.86100
O672        O  0.28557045  0.16286320  0.24476117    -0.87500
O673        O  0.25368416  0.23924234  0.29680249    -0.86000
O674        O  0.25057340  0.24198104  0.20874357    -0.85600
Zr675      Zr  0.27406023  0.23929305  0.25176319     2.84300
O676        O  0.30198629  0.26531451  0.27933691    -1.07500
O677        O  0.30059583  0.21370625  0.22225345    -1.08300
C678        C  0.25817179  0.24327338  0.18387291     1.07200
C679        C  0.26265096  0.23762440  0.32122235     1.07100
C680        C  0.26082314  0.17049207  0.24619692     1.10100
C681        C  0.25978514  0.30782648  0.25222999     1.07900
H682        H  0.29100742  0.19864747  0.28789170     0.33400
O683        O  0.30185039  0.21059797  0.27691632    -1.28500
H684        H  0.28928658  0.27924808  0.21423506     0.33100
O685        O  0.30064704  0.26749826  0.22472723    -1.30200
O686        O  0.37451981  0.23561913  0.32498133    -0.85900
O687        O  0.37062591  0.24104552  0.17184104    -0.87400
O688        O  0.33146964  0.16041062  0.28949223    -0.86000
O689        O  0.32811635  0.31271865  0.29711726    -0.86100
O690        O  0.32873733  0.31793004  0.20973991    -0.85800
O691        O  0.32841427  0.16527640  0.20240292    -0.85600
O692        O  0.40530667  0.19642495  0.24539436    -0.86000
O693        O  0.40391479  0.28495877  0.24935015    -0.85400
O694        O  0.37215719  0.16424666  0.24423025    -0.86500
O695        O  0.37109589  0.31720288  0.25359588    -0.85600
O696        O  0.33171530  0.19160470  0.32356806    -0.86000
O697        O  0.32501569  0.19931038  0.17121092    -0.85800
O698        O  0.32639433  0.28676111  0.17557872    -0.85400
O699        O  0.32999451  0.27937516  0.32889877    -0.85800
O700        O  0.40632742  0.23894338  0.29143409    -0.86100
O701        O  0.40397166  0.24106549  0.20378243    -0.87500
Zr702      Zr  0.33017084  0.23677709  0.30416144     2.83100
Zr703      Zr  0.32738609  0.24195315  0.19556541     2.83500
Zr704      Zr  0.32869147  0.18555975  0.24725466     2.84100
Zr705      Zr  0.32838837  0.29346496  0.25225170     2.83400
Zr706      Zr  0.38307253  0.24020146  0.24825166     2.84200
O707        O  0.35536011  0.26846232  0.22275535    -1.08000
O708        O  0.35683781  0.21131868  0.27490150    -1.07500
C709        C  0.39901529  0.23724104  0.31636854     1.07100
C710        C  0.39563849  0.24069575  0.17913580     1.09800
C711        C  0.33228550  0.16714659  0.31463135     1.07300
C712        C  0.32896668  0.30440601  0.32174907     1.07700
C713        C  0.32736380  0.31111497  0.18468902     1.07300
C714        C  0.32633842  0.17422019  0.17803760     1.06800
C715        C  0.39699128  0.17176905  0.24380473     1.07200
C716        C  0.39586457  0.30966497  0.25180098     1.06700
H717        H  0.36613406  0.20311140  0.20865098     0.33400
O718        O  0.35530610  0.21387531  0.22070751    -1.29100
H719        H  0.36788074  0.27654494  0.28917473     0.33400
O720        O  0.35649897  0.26560861  0.27764501    -1.30500
C721        C  0.83969657  0.07034092  0.59677347    -0.13800
C722        C  0.82766886  0.09583508  0.59481928     0.16600
C723        C  0.81717544  0.10451236  0.57004769     0.02900
C724        C  0.81964314  0.08813249  0.54735903    -0.12300
C725        C  0.83236453  0.06289167  0.54887281    -0.03400
C726        C  0.84231186  0.05383730  0.57394246     0.02100
C727        C  0.82890676  0.11457170  0.61780812     0.08900
N728        N  0.80410574  0.13006326  0.56769153     0.65300
H729        H  0.81146165  0.09522663  0.52840654     0.18200
N730        N  0.85698830  0.02913127  0.57608530     0.75800
H731        H  0.84830103  0.06387686  0.61576014     0.09700
C732        C  0.81145716  0.11196991  0.63997865     0.03400
C733        C  0.81301686  0.13047355  0.66119844    -0.05300
C734        C  0.83150381  0.15186947  0.66031078    -0.23700
C735        C  0.84939436  0.15410199  0.63834802     0.12700
C736        C  0.84788146  0.13551877  0.61723753    -0.12800
N737        N  0.79121203  0.09149645  0.64049731     0.64300
H738        H  0.79901318  0.12878335  0.67788443     0.12200
N739        N  0.86981501  0.17447337  0.63777700     0.61000
H740        H  0.86165423  0.13731185  0.60037109     0.08400
O741        O  0.84942584  0.01123813  0.59251898    -0.40500
O742        O  0.87957619  0.02689066  0.56461895    -0.39700
O743        O  0.81513423  0.14881748  0.55449759    -0.39700
O744        O  0.78022131  0.13281141  0.57594384    -0.37400
O745        O  0.89088881  0.17155110  0.65166484    -0.38300
O746        O  0.86861179  0.19322409  0.62064406    -0.34400
O747        O  0.79311409  0.07218086  0.65691781    -0.35800
O748        O  0.76965990  0.09479815  0.62746534    -0.40100
C749        C  0.69092511  0.25722364  0.57575550    -0.13800
C750        C  0.68142836  0.24140105  0.59709621     0.16600
C751        C  0.65578599  0.22940974  0.59521364     0.02900
C752        C  0.64008484  0.23331958  0.57197362    -0.12300
C753        C  0.64991087  0.24857786  0.55016751    -0.03400
C754        C  0.67550791  0.26100384  0.55248011     0.02100
C755        C  0.69891365  0.23799025  0.62104205     0.08900
N756        N  0.64627795  0.21180125  0.61593025     0.65300
H757        H  0.62081610  0.22316649  0.57039439     0.18200
N758        N  0.68602521  0.27786054  0.53153694     0.75800
H759        H  0.71049787  0.26681855  0.57726088     0.09700
C760        C  0.72230219  0.22208388  0.61946363     0.03400
C761        C  0.74121338  0.22276264  0.64032745    -0.05300
C762        C  0.73727194  0.23906517  0.66310768    -0.23700
C763        C  0.71355943  0.25471642  0.66495615     0.12700
C764        C  0.69450704  0.25388026  0.64402145    -0.12800
N765        N  0.72727748  0.20547255  0.59647706     0.64300
H766        H  0.75915221  0.21043985  0.63868207     0.12200
N767        N  0.70975936  0.27334651  0.68662200     0.61000
H768        H  0.67698109  0.26684326  0.64498086     0.08400
O769        O  0.70850797  0.27247920  0.52095457    -0.40500
O770        O  0.67455036  0.29986191  0.52601918    -0.39700
O771        O  0.62622589  0.21846304  0.63004593    -0.39700
O772        O  0.65544949  0.18814439  0.61754462    -0.37400
O773        O  0.72353270  0.29473790  0.68741275    -0.38300
O774        O  0.69012906  0.27046603  0.70252929    -0.34400
O775        O  0.74678527  0.21071132  0.58102190    -0.35800
O776        O  0.71431885  0.18378131  0.59352000    -0.40100
C777        C  0.67966431  0.22828712  0.92613200    -0.13800
C778        C  0.68026966  0.24341213  0.90225062     0.16600
C779        C  0.65723623  0.25795248  0.89438560     0.02900
C780        C  0.63347459  0.25554612  0.90914271    -0.12300
C781        C  0.63229854  0.23938065  0.93226449    -0.03400
C782        C  0.65586791  0.22626231  0.94129277     0.02100
C783        C  0.70278139  0.24011924  0.88305187     0.08900
N784        N  0.65760064  0.27472087  0.87094394     0.65300
H785        H  0.61575179  0.26632710  0.90236870     0.18200
N786        N  0.65533435  0.20892259  0.96429208     0.75800
H787        H  0.69712863  0.21663884  0.93205771     0.09700
C788        C  0.72934248  0.24801374  0.88897706     0.03400
C789        C  0.74925786  0.24611096  0.86900967    -0.05300
C790        C  0.74307713  0.23618795  0.84314653    -0.23700
C791        C  0.71675210  0.22658347  0.83807711     0.12700
C792        C  0.69700430  0.22876764  0.85789973    -0.12800
N793        N  0.73611626  0.25896338  0.91470429     0.64300
H794        H  0.76936350  0.25331973  0.87351689     0.12200
N795        N  0.70971003  0.21419373  0.81306654     0.61000
H796        H  0.67683668  0.22157102  0.85358030     0.08400
O797        O  0.66745359  0.21579226  0.98553765    -0.40500
O798        O  0.64655058  0.18515630  0.96198297    -0.39700
O799        O  0.64324181  0.26874913  0.85084724    -0.39700
O800        O  0.66961952  0.29713543  0.87161469    -0.37400
O801        O  0.71608377  0.18995180  0.80880436    -0.38300
O802        O  0.69331998  0.22576863  0.79749590    -0.34400
O803        O  0.74889141  0.24473797  0.93143774    -0.35800
O804        O  0.73341547  0.28389449  0.91889782    -0.40100
C805        C  0.67428979  0.41173637  0.75368814    -0.13800
C806        C  0.67247260  0.38443144  0.74628229     0.16600
C807        C  0.64787043  0.37454650  0.73607575     0.02900
C808        C  0.62563152  0.39159489  0.73421942    -0.12300
C809        C  0.62716415  0.41878757  0.74197683    -0.03400
C810        C  0.65195141  0.42898128  0.75159191     0.02100
C811        C  0.69567734  0.36597342  0.75065620     0.08900
N812        N  0.64520703  0.34724940  0.72714268     0.65300
H813        H  0.60699010  0.38341624  0.72632480     0.18200
N814        N  0.65441738  0.45618057  0.76084819     0.75800
H815        H  0.69283033  0.41947291  0.76219984     0.09700
C816        C  0.72167528  0.37196339  0.74084623     0.03400
C817        C  0.74248963  0.35320064  0.74395837    -0.05300
C818        C  0.73788285  0.32809146  0.75628876    -0.23700
C819        C  0.71222955  0.32277379  0.76747260     0.12700
C820        C  0.69159637  0.34176558  0.76479516    -0.12800
N821        N  0.72693672  0.39628177  0.72629390     0.64300
H822        H  0.76199929  0.35776763  0.73526500     0.12200
N823        N  0.70674479  0.29828440  0.78167299     0.61000
H824        H  0.67210119  0.33741012  0.77361688     0.08400
O825        O  0.67205079  0.47146900  0.75070691    -0.40500
O826        O  0.64205316  0.46353526  0.78181551    -0.39700
O827        O  0.62854937  0.33171334  0.73850645    -0.39700
O828        O  0.65692012  0.33971466  0.70587593    -0.37400
O829        O  0.71324389  0.29619707  0.80615524    -0.38300
O830        O  0.69144306  0.28084402  0.77126662    -0.34400
O831        O  0.74383739  0.41303205  0.73527439    -0.35800
O832        O  0.71764274  0.39921810  0.70282980    -0.40100
C833        C  0.72794033  0.26169713  0.38149678    -0.13800
C834        C  0.70616413  0.24357182  0.38203850     0.16600
C835        C  0.70231431  0.22609819  0.35989046     0.02900
C836        C  0.72064021  0.22641702  0.33834114    -0.12300
C837        C  0.74325364  0.24341163  0.33875005    -0.03400
C838        C  0.74656720  0.26152916  0.36035716     0.02100
C839        C  0.68795585  0.24338328  0.40595039     0.08900
N840        N  0.68079282  0.20693478  0.35962141     0.65300
H841        H  0.71789291  0.21239077  0.32183229     0.18200
N842        N  0.76828778  0.28048557  0.36067432     0.75800
H843        H  0.73055637  0.27612312  0.39766569     0.09700
C844        C  0.69861362  0.24242751  0.43225289     0.03400
C845        C  0.68150502  0.24434881  0.45447445    -0.05300
C846        C  0.65341066  0.24664485  0.45153645    -0.23700
C847        C  0.64261642  0.24719816  0.42512470     0.12700
C848        C  0.65992486  0.24579406  0.40272243    -0.12800
N849        N  0.72683509  0.23882584  0.43683932     0.64300
H850        H  0.69054665  0.24338546  0.47428819     0.12200
N851        N  0.61430287  0.24952723  0.42053794     0.61000
H852        H  0.65140805  0.24716067  0.38269030     0.08400
O853        O  0.78706876  0.27790665  0.37758314    -0.40500
O854        O  0.76660214  0.30183840  0.34696318    -0.39700
O855        O  0.66271274  0.20850383  0.34184398    -0.39700
O856        O  0.68200706  0.18633182  0.37448225    -0.37400
O857        O  0.60357359  0.27254752  0.41953450    -0.38300
O858        O  0.60097206  0.22911253  0.41328396    -0.34400
O859        O  0.73986416  0.25624923  0.45001519    -0.35800
O860        O  0.73784341  0.21667262  0.43100042    -0.40100
C861        C  0.84328974  0.10410785  0.35470392    -0.13800
C862        C  0.83442018  0.11228417  0.38031566     0.16600
C863        C  0.82465887  0.13874148  0.38372853     0.02900
C864        C  0.82452927  0.15653336  0.36201930    -0.12300
C865        C  0.83380979  0.14873971  0.33643454    -0.03400
C866        C  0.84310797  0.12203025  0.33278647     0.02100
C867        C  0.83749866  0.09407910  0.40387643     0.08900
N868        N  0.81464163  0.14788966  0.40917519     0.65300
H869        H  0.81676591  0.17667054  0.36532166     0.18200
N870        N  0.85384494  0.11319152  0.30755159     0.75800
H871        H  0.85149239  0.08407117  0.35195172     0.09700
C872        C  0.82715205  0.06757955  0.40408154     0.03400
C873        C  0.82938822  0.05179690  0.42741091    -0.05300
C874        C  0.84129850  0.06218050  0.45090185    -0.23700
C875        C  0.85293680  0.08819623  0.45010307     0.12700
C876        C  0.85116442  0.10364662  0.42667187    -0.12800
N877        N  0.81294749  0.05697917  0.38138657     0.64300
H878        H  0.82029961  0.03192790  0.42758476     0.12200
N879        N  0.86669183  0.09928440  0.47286012     0.61000
H880        H  0.86035110  0.12347296  0.42638631     0.08400
O881        O  0.84261903  0.09407883  0.29509074    -0.40500
O882        O  0.87689116  0.12108495  0.30022241    -0.39700
O883        O  0.82525564  0.16807445  0.42045297    -0.39700
O884        O  0.79317988  0.13804287  0.41863346    -0.37400
O885        O  0.89016228  0.09138265  0.47850556    -0.38300
O886        O  0.85686955  0.11926960  0.48513005    -0.34400
O887        O  0.82145147  0.03603772  0.36975035    -0.35800
O888        O  0.79022572  0.06646096  0.37513547    -0.40100
C889        C  0.50284236  0.21302331  0.11020031    -0.13800
C890        C  0.47934792  0.22437338  0.09950798     0.16600
C891        C  0.47956591  0.23395618  0.07274594     0.02900
C892        C  0.50354515  0.23305818  0.05769929    -0.12300
C893        C  0.52766296  0.22372579  0.06926984    -0.03400
C894        C  0.52687173  0.21279952  0.09556850     0.02100
C895        C  0.45663065  0.22947606  0.11824394     0.08900
N896        N  0.45654538  0.24711122  0.06153937     0.65300
H897        H  0.50373574  0.24171744  0.03765559     0.18200
N898        N  0.55045431  0.20215931  0.10815534     0.75800
H899        H  0.50283010  0.20541059  0.13068054     0.09700
C900        C  0.43075670  0.21819830  0.11497194     0.03400
C901        C  0.41076421  0.22313994  0.13443087    -0.05300
C902        C  0.41638055  0.23843988  0.15766759    -0.23700
C903        C  0.44230758  0.24986369  0.16054208     0.12700
C904        C  0.46182956  0.24559547  0.14077545    -0.12800
N905        N  0.42502124  0.20026221  0.09317888     0.64300
H906        H  0.39118864  0.21374979  0.13205490     0.12200
N907        N  0.44918654  0.26647352  0.18299553     0.61000
H908        H  0.48157452  0.25460538  0.14333513     0.08400
O909        O  0.56060920  0.21426956  0.12806732    -0.40500
O910        O  0.55816169  0.17859985  0.10253142    -0.39700
O911        O  0.44981154  0.27007600  0.07012858    -0.39700
O912        O  0.44622698  0.23829483  0.04005264    -0.37400
O913        O  0.45771179  0.25551563  0.20429219    -0.38300
O914        O  0.45436754  0.29102471  0.17881694    -0.34400
O915        O  0.43432297  0.17660743  0.09368926    -0.35800
O916        O  0.40655588  0.20600411  0.07670689    -0.40100
C917        C  0.67071186  0.25849869  0.08021031    -0.13800
C918        C  0.67220358  0.24512026  0.10509615     0.16600
C919        C  0.65001721  0.22965983  0.11381660     0.02900
C920        C  0.62691806  0.22784033  0.09786563    -0.12300
C921        C  0.62523195  0.24105689  0.07291226    -0.03400
C922        C  0.64746186  0.25667721  0.06412289     0.02100
C923        C  0.69624184  0.24816046  0.12268823     0.08900
N924        N  0.65095435  0.21504773  0.13862598     0.65300
H925        H  0.61042399  0.21536171  0.10484740     0.18200
N926        N  0.64621315  0.27200607  0.03976364     0.75800
H927        H  0.68732302  0.27105851  0.07362104     0.09700
C928        C  0.72174841  0.23837047  0.11502427     0.03400
C929        C  0.74282528  0.23769598  0.13384776    -0.05300
C930        C  0.73910348  0.24716390  0.16030218    -0.23700
C931        C  0.71414773  0.25919296  0.16709608     0.12700
C932        C  0.69301161  0.25927213  0.14845286    -0.12800
N933        N  0.72621762  0.22799843  0.08856658     0.64300
H934        H  0.76194614  0.22902679  0.12790528     0.12200
N935        N  0.71013653  0.27215637  0.19251073     0.61000
H936        H  0.67376819  0.26779239  0.15424728     0.08400
O937        O  0.66142296  0.26607570  0.02027941    -0.40500
O938        O  0.63340052  0.29395388  0.03938750    -0.39700
O939        O  0.63600016  0.22196234  0.15798694    -0.39700
O940        O  0.66387598  0.19320378  0.13991871    -0.37400
O941        O  0.71533253  0.29695285  0.19484879    -0.38300
O942        O  0.69687918  0.26035261  0.21073835    -0.34400
O943        O  0.73500690  0.24344427  0.07035782    -0.35800
O944        O  0.72598934  0.20287157  0.08469230    -0.40100
C945        C  0.50527112  0.37507819  0.26601166    -0.13800
C946        C  0.48246306  0.38689029  0.25441292     0.16600
C947        C  0.48323210  0.41427225  0.24700997     0.02900
C948        C  0.50711365  0.42908524  0.25039368    -0.12300
C949        C  0.53040155  0.41689875  0.26100841    -0.03400
C950        C  0.52902533  0.38972582  0.26949226     0.02100
C951        C  0.45833938  0.36977556  0.25059462     0.08900
N952        N  0.46042544  0.42686938  0.23484186     0.65300
H953        H  0.50770442  0.44988146  0.24373961     0.18200
N954        N  0.55125748  0.37688391  0.28249438     0.75800
H955        H  0.50455391  0.35424253  0.27258354     0.09700
C956        C  0.46003514  0.34642446  0.23460882     0.03400
C957        C  0.43960925  0.32714184  0.23569710    -0.05300
C958        C  0.41678947  0.33091754  0.25182337    -0.23700
C959        C  0.41444935  0.35489341  0.26708357     0.12700
C960        C  0.43526581  0.37410095  0.26636013    -0.12800
N961        N  0.48264180  0.34197777  0.21733069     0.64300
H962        H  0.44153286  0.30905901  0.22377380     0.12200
N963        N  0.39227263  0.35899225  0.28503118     0.61000
H964        H  0.43409610  0.39168095  0.27925568     0.08400
O965        O  0.56314569  0.35756558  0.27102479    -0.40500
O966        O  0.55591957  0.38169539  0.30701039    -0.39700
O967        O  0.44693713  0.44392914  0.24798847    -0.39700
O968        O  0.45650026  0.42430809  0.20986426    -0.37400
O969        O  0.39237980  0.34795559  0.30793815    -0.38300
O970        O  0.37503404  0.37692672  0.27989063    -0.34400
O971        O  0.49889724  0.32311309  0.22236139    -0.35800
O972        O  0.48414695  0.35428654  0.19512957    -0.40100
C973        C  0.65511720  0.38102458  0.23809109    -0.13800
C974        C  0.67491984  0.38413255  0.25795610     0.16600
C975        C  0.67228361  0.40486022  0.27718028     0.02900
C976        C  0.64948710  0.42152224  0.27679229    -0.12300
C977        C  0.62913642  0.41755765  0.25759703    -0.03400
C978        C  0.63237429  0.39757460  0.23769656     0.02100
C979        C  0.69790533  0.36519043  0.25825744     0.08900
N980        N  0.69174982  0.40812349  0.29810733     0.65300
H981        H  0.64706778  0.43672082  0.29228058     0.18200
N982        N  0.61310252  0.39446913  0.21650287     0.75800
H983        H  0.65743741  0.36569967  0.22271098     0.09700
C984        C  0.69349980  0.33740565  0.26166116     0.03400
C985        C  0.71500532  0.31945485  0.25977911    -0.05300
C986        C  0.74135127  0.32849645  0.25433670    -0.23700
C987        C  0.74575637  0.35657449  0.25107760     0.12700
C988        C  0.72405979  0.37457657  0.25314937    -0.12800
N989        N  0.66717660  0.32712119  0.26724396     0.64300
H990        H  0.71083765  0.29820429  0.26264212     0.12200
N991        N  0.77178048  0.36714809  0.24468457     0.61000
H992        H  0.72752557  0.39592497  0.25003167     0.08400
O993        O  0.60183058  0.37198050  0.21269828    -0.40500
O994        O  0.60966913  0.41327306  0.19972339    -0.39700
O995        O  0.70778326  0.42786546  0.29749971    -0.39700
O996        O  0.69028872  0.39371058  0.31901039    -0.37400
O997        O  0.77763809  0.37246428  0.22051359    -0.38300
O998        O  0.78693288  0.37540824  0.26333632    -0.34400
O999        O  0.65416383  0.31515718  0.24898102    -0.35800
O1000       O  0.65881570  0.32624520  0.29123619    -0.40100
C1001       C  0.93243108  0.37531528  0.77109265    -0.13800
C1002       C  0.95556716  0.37419643  0.75487523     0.16600
C1003       C  0.95996491  0.35137122  0.73856987     0.02900
C1004       C  0.94084214  0.33057149  0.73810805    -0.12300
C1005       C  0.91709710  0.33234331  0.75340660    -0.03400
C1006       C  0.91318397  0.35479527  0.77039001     0.02100
C1007       C  0.97461761  0.39721002  0.75555716     0.08900
N1008       N  0.98310782  0.34957039  0.72153757     0.65300
H1009       H  0.94413243  0.31340617  0.72501816     0.18200
N1010       N  0.89030714  0.35655621  0.78783021     0.75800
H1011       H  0.92932994  0.39225915  0.78450928     0.09700
C1012       C  0.96531496  0.42354206  0.75075414     0.03400
C1013       C  0.98235601  0.44544687  0.75496851    -0.05300
C1014       C  0.00910454  0.44193331  0.76360595    -0.23700
C1015       C  0.01889895  0.41537585  0.76713234     0.12700
C1016       C  0.00152059  0.39332049  0.76335602    -0.12800
N1017       N  0.93849144  0.42835363  0.74146028     0.64300
H1018       H  0.97437392  0.46543004  0.75131840     0.12200
N1019       N  0.04600698  0.41039233  0.77536396     0.61000
H1020       H  0.00885206  0.37314154  0.76729809     0.08400
O1021       O  0.87161876  0.37291774  0.78249876    -0.40500
O1022       O  0.89083160  0.34507902  0.81051428    -0.39700
O1023       O  0.00069887  0.33179646  0.72601955    -0.39700
O1024       O  0.98384076  0.36275508  0.69980731    -0.37400
O1025       O  0.05104873  0.40545853  0.79977796    -0.38300
O1026       O  0.06397048  0.40651406  0.75779208    -0.34400
O1027       O  0.92180627  0.44020634  0.75653721    -0.35800
O1028       O  0.93279799  0.42452087  0.71699488    -0.40100
C1029       C  0.00475974  0.58767452  0.76929261    -0.13800
C1030       C  0.97680428  0.58535998  0.77317067     0.16600
C1031       C  0.96595196  0.56021649  0.78069374     0.02900
C1032       C  0.98262301  0.53765722  0.78233499    -0.12300
C1033       C  0.01043656  0.53942352  0.77719374    -0.03400
C1034       C  0.02168831  0.56506683  0.77163253     0.02100
C1035       C  0.95861468  0.60817930  0.76645899     0.08900
N1036       N  0.93784596  0.55723511  0.78642074     0.65300
H1037       H  0.97350902  0.51847445  0.78748794     0.18200
N1038       N  0.04992289  0.56835175  0.76704322     0.75800
H1039       H  0.01337147  0.60687998  0.76343991     0.09700
C1040       C  0.96061459  0.63347279  0.77921125     0.03400
C1041       C  0.94201146  0.65382315  0.77305967    -0.05300
C1042       C  0.92112872  0.64935253  0.75445260    -0.23700
C1043       C  0.91983060  0.62439157  0.74094489     0.12700
C1044       C  0.93854258  0.60420094  0.74692471    -0.12800
N1045       N  0.98046345  0.63831379  0.79945867     0.64300
H1046       H  0.94322592  0.67282770  0.78375883     0.12200
N1047       N  0.90010937  0.61949812  0.72056739     0.61000
H1048       H  0.93730022  0.58515051  0.73631561     0.08400
O1049       O  0.06552974  0.57192853  0.78677426    -0.40500
O1050       O  0.05861657  0.57176549  0.74339300    -0.39700
O1051       O  0.92376049  0.54090212  0.77294731    -0.39700
O1052       O  0.92778324  0.56868926  0.80676274    -0.37400
O1053       O  0.87973030  0.60523846  0.72591082    -0.38300
O1054       O  0.90540491  0.62526977  0.69637423    -0.34400
O1055       O  0.00048495  0.65309060  0.79416387    -0.35800
O1056       O  0.97550585  0.63207497  0.82360447    -0.40100
C1057       C  0.81966954  0.38913329  0.57448018    -0.13800
C1058       C  0.81732025  0.39207394  0.60250823     0.16600
C1059       C  0.81388423  0.41779484  0.61359028     0.02900
C1060       C  0.81395621  0.44025437  0.59690495    -0.12300
C1061       C  0.81777094  0.43804058  0.56889802    -0.03400
C1062       C  0.82001709  0.41190555  0.55753787     0.02100
C1063       C  0.82064004  0.36885587  0.62072772     0.08900
N1064       N  0.81081322  0.42142650  0.64202053     0.65300
H1065       H  0.81117453  0.45963942  0.60631292     0.18200
N1066       N  0.82351431  0.40806333  0.52921043     0.75800
H1067       H  0.82228623  0.36923664  0.56587527     0.09700
C1068       C  0.80016511  0.34947723  0.62406084     0.03400
C1069       C  0.80305501  0.32951742  0.64378707    -0.05300
C1070       C  0.82543181  0.32944523  0.66102453    -0.23700
C1071       C  0.84607294  0.34853906  0.65740588     0.12700
C1072       C  0.84370696  0.36784502  0.63704651    -0.12800
N1073       N  0.77566141  0.35093810  0.60894754     0.64300
H1074       H  0.78710900  0.31483004  0.64662394     0.12200
N1075       N  0.86950777  0.34845842  0.67413442     0.61000
H1076       H  0.85948541  0.38276670  0.63455457     0.08400
O1077       O  0.84677138  0.40962831  0.51904763    -0.40500
O1078       O  0.80441623  0.39861437  0.51535525    -0.39700
O1079       O  0.82862641  0.43386043  0.65522370    -0.39700
O1080       O  0.78939353  0.41402779  0.65357357    -0.37400
O1081       O  0.86991042  0.36255901  0.69527416    -0.38300
O1082       O  0.89113882  0.33834166  0.66545560    -0.34400
O1083       O  0.76690942  0.33029871  0.59693770    -0.35800
O1084       O  0.76074991  0.37141798  0.61105814    -0.40100
C1085       C  0.82642044  0.56064037  0.61298726    -0.13800
C1086       C  0.82534399  0.58552130  0.59977565     0.16600
C1087       C  0.82555213  0.58601066  0.57138475     0.02900
C1088       C  0.82567980  0.56168471  0.55688693    -0.12300
C1089       C  0.82569146  0.53657871  0.57019017    -0.03400
C1090       C  0.82639265  0.53642371  0.59879148     0.02100
C1091       C  0.82422983  0.61022348  0.61668152     0.08900
N1092       N  0.82462750  0.61091750  0.55698218     0.65300
H1093       H  0.82525852  0.56255742  0.53509848     0.18200
N1094       N  0.82689126  0.51203026  0.61411797     0.75800
H1095       H  0.82724865  0.55994935  0.63480240     0.09700
C1096       C  0.80565238  0.61188068  0.63820848     0.03400
C1097       C  0.80890651  0.63156879  0.65805709    -0.05300
C1098       C  0.82949004  0.65078448  0.65615208    -0.23700
C1099       C  0.84684645  0.65053742  0.63361497     0.12700
C1100       C  0.84434283  0.63001710  0.61430113    -0.12800
N1101       N  0.78329315  0.59368949  0.64000366     0.64300
H1102       H  0.79478322  0.63233252  0.67471543     0.12200
N1103       N  0.86783776  0.67015411  0.63072751     0.61000
H1104       H  0.85910977  0.62871181  0.59830260     0.08400
O1105       O  0.84890582  0.49975095  0.61730132    -0.40500
O1106       O  0.80715703  0.50631699  0.62913507    -0.39700
O1107       O  0.84608882  0.62070204  0.54745356    -0.39700
O1108       O  0.80224711  0.61981240  0.54893131    -0.37400
O1109       O  0.86993762  0.68346447  0.60915570    -0.38300
O1110       O  0.88504051  0.67334471  0.64916533    -0.34400
O1111       O  0.77919232  0.58045351  0.66134014    -0.35800
O1112       O  0.76627239  0.59267087  0.62116342    -0.40100
C1113       C  0.65483151  0.71666981  0.88629087    -0.13800
C1114       C  0.67544288  0.73478495  0.89251346     0.16600
C1115       C  0.67306235  0.75149324  0.91526671     0.02900
C1116       C  0.64995451  0.74984944  0.93145148    -0.12300
C1117       C  0.62875420  0.73225589  0.92476668    -0.03400
C1118       C  0.63155610  0.71517487  0.90213433     0.02100
C1119       C  0.69834448  0.73697603  0.87376899     0.08900
N1120       N  0.69320612  0.77120531  0.92122311     0.65300
H1121       H  0.64797836  0.76336336  0.94848702     0.18200
N1122       N  0.61145321  0.69561187  0.89543213     0.75800
H1123       H  0.65686582  0.70365055  0.86887372     0.09700
C1124       C  0.72153162  0.72095165  0.87668155     0.03400
C1125       C  0.74201252  0.72243845  0.85732187    -0.05300
C1126       C  0.73926539  0.73898026  0.83449531    -0.23700
C1127       C  0.71594962  0.75498219  0.83172607     0.12700
C1128       C  0.69584594  0.75399066  0.85143280    -0.12800
N1129       N  0.72396285  0.70222548  0.89844243     0.64300
H1130       H  0.75963162  0.70975624  0.85956828     0.12200
N1131       N  0.71250823  0.77258390  0.80922563     0.61000
H1132       H  0.67792810  0.76622549  0.84906831     0.08400
O1133       O  0.60426170  0.67856311  0.91288717    -0.40500
O1134       O  0.60507086  0.69191707  0.87109813    -0.39700
O1135       O  0.69300225  0.79354931  0.90906364    -0.39700
O1136       O  0.70860973  0.76791302  0.94114650    -0.37400
O1137       O  0.69644426  0.76606668  0.79065194    -0.38300
O1138       O  0.72113705  0.79648030  0.81054470    -0.34400
O1139       O  0.71143887  0.68009627  0.89742812    -0.35800
O1140       O  0.74221023  0.70545557  0.91581895    -0.40100
C1141       C  0.69695225  0.63612873  0.72514259    -0.13800
C1142       C  0.69915031  0.61256210  0.74051445     0.16600
C1143       C  0.72300837  0.60723812  0.75474219     0.02900
C1144       C  0.74418394  0.62585146  0.75387789    -0.12300
C1145       C  0.74171078  0.64994562  0.73922372    -0.03400
C1146       C  0.71806714  0.65473289  0.72414836     0.02100
C1147       C  0.67616817  0.59381565  0.74112112     0.08900
N1148       N  0.72540287  0.58374705  0.77122662     0.65300
H1149       H  0.76211086  0.62202686  0.76571073     0.18200
N1150       N  0.71567165  0.67776341  0.70691977     0.75800
H1151       H  0.67881906  0.63989076  0.71359591     0.09700
C1152       C  0.65215718  0.60132577  0.75400018     0.03400
C1153       C  0.62933053  0.58522822  0.75134298    -0.05300
C1154       C  0.62979409  0.56167704  0.73563752    -0.23700
C1155       C  0.65401857  0.55388382  0.72290634     0.12700
C1156       C  0.67716832  0.56985806  0.72615544    -0.12800
N1157       N  0.65061389  0.62557531  0.76946326     0.64300
H1158       H  0.61101492  0.59135970  0.76152404     0.12200
N1159       N  0.65482011  0.53145119  0.70477024     0.61000
H1160       H  0.69551864  0.56450430  0.71560791     0.08400
O1161       O  0.69628896  0.69392183  0.70992669    -0.40500
O1162       O  0.73053962  0.67973316  0.68637449    -0.39700
O1163       O  0.74278907  0.56608653  0.76563634    -0.39700
O1164       O  0.71276895  0.58242567  0.79325982    -0.37400
O1165       O  0.63957418  0.53115414  0.68443603    -0.38300
O1166       O  0.67362633  0.51444989  0.70643524    -0.34400
O1167       O  0.63855768  0.64586210  0.76003314    -0.35800
O1168       O  0.65810885  0.62556525  0.79374015    -0.40100
C1169       C  0.81641102  0.90944117  0.59364219    -0.13800
C1170       C  0.83364171  0.88706181  0.59343523     0.16600
C1171       C  0.84880326  0.88129354  0.57018692     0.02900
C1172       C  0.84554773  0.89705713  0.54706527    -0.12300
C1173       C  0.82794745  0.91914660  0.54700734    -0.03400
C1174       C  0.81353947  0.92559277  0.57062406     0.02100
C1175       C  0.83294086  0.86774225  0.61606941     0.08900
N1176       N  0.86783293  0.85967994  0.57002907     0.65300
H1177       H  0.85719176  0.89232678  0.52920286     0.18200
N1178       N  0.79452945  0.94721052  0.57087020     0.75800
H1179       H  0.80429392  0.91364185  0.61131503     0.09700
C1180       C  0.84541846  0.87327627  0.64087250     0.03400
C1181       C  0.84462469  0.85402498  0.66159854    -0.05300
C1182       C  0.83140624  0.82918541  0.65787579    -0.23700
C1183       C  0.81810729  0.82423024  0.63317494     0.12700
C1184       C  0.81929132  0.84331507  0.61249800    -0.12800
N1185       N  0.85971098  0.89795377  0.64485370     0.64300
H1186       H  0.85492881  0.85822872  0.68036685     0.12200
N1187       N  0.80241264  0.80038219  0.62913171     0.61000
H1188       H  0.80914172  0.83922593  0.59360592     0.08400
O1189       O  0.79823770  0.96724290  0.58607544    -0.40500
O1190       O  0.77261774  0.94490180  0.55821009    -0.39700
O1191       O  0.86481510  0.84013462  0.55405886    -0.39700
O1192       O  0.88923324  0.86165295  0.58358722    -0.37400
O1193       O  0.77913030  0.79872794  0.63922871    -0.38300
O1194       O  0.81010171  0.78287401  0.61239366    -0.34400
O1195       O  0.84746019  0.91840767  0.65364225    -0.35800
O1196       O  0.88366420  0.90019648  0.63663441    -0.40100
C1197       C  0.66142756  0.72346535  0.59619567    -0.13800
C1198       C  0.68276206  0.74202336  0.59510316     0.16600
C1199       C  0.68632107  0.75806608  0.57202147     0.02900
C1200       C  0.66971586  0.75416747  0.54974043    -0.12300
C1201       C  0.64918664  0.73474389  0.55025832    -0.03400
C1202       C  0.64463073  0.71961490  0.57385791     0.02100
C1203       C  0.70356763  0.74152463  0.61622227     0.08900
N1204       N  0.70703156  0.77809012  0.57090354     0.65300
H1205       H  0.67303608  0.76620582  0.53180514     0.18200
N1206       N  0.62497380  0.69851015  0.57446931     0.75800
H1207       H  0.65900703  0.71064321  0.61371552     0.09700
C1208       C  0.69764691  0.74816069  0.64304278     0.03400
C1209       C  0.71786563  0.74665951  0.66250037    -0.05300
C1210       C  0.74406107  0.73805502  0.65578548    -0.23700
C1211       C  0.74960128  0.73027490  0.62892808     0.12700
C1212       C  0.72946525  0.73260181  0.60939941    -0.12800
N1213       N  0.67133147  0.75693629  0.65067453     0.64300
H1214       H  0.71301366  0.75265153  0.68292191     0.12200
N1215       N  0.77481305  0.71840926  0.62145210     0.61000
H1216       H  0.73373073  0.72638781  0.58890144     0.08400
O1217       O  0.60668964  0.69869311  0.59213448    -0.40500
O1218       O  0.62826906  0.67778106  0.56011230    -0.39700
O1219       O  0.72673243  0.77517600  0.55510035    -0.39700
O1220       O  0.70411204  0.80000824  0.58345228    -0.37400
O1221       O  0.78164166  0.69610189  0.63158357    -0.38300
O1222       O  0.78769327  0.72749214  0.60147775    -0.34400
O1223       O  0.65624551  0.74147302  0.66412239    -0.35800
O1224       O  0.66470381  0.78125120  0.64734529    -0.40100
C1225       C  0.69508436  0.72497526  0.35856384    -0.13800
C1226       C  0.70180907  0.73532966  0.38398111     0.16600
C1227       C  0.72704769  0.74786351  0.38758832     0.02900
C1228       C  0.74514304  0.74948198  0.36609482    -0.12300
C1229       C  0.73872740  0.73881839  0.34068247    -0.03400
C1230       C  0.71331193  0.72638487  0.33699118     0.02100
C1231       C  0.68344999  0.73084288  0.40715434     0.08900
N1232       N  0.73452758  0.75924038  0.41297716     0.65300
H1233       H  0.76435123  0.75935502  0.36935415     0.18200
N1234       N  0.70644527  0.71334721  0.31221997     0.75800
H1235       H  0.67609550  0.71454910  0.35580223     0.09700
C1236       C  0.65647413  0.73968923  0.40689395     0.03400
C1237       C  0.64016110  0.73584998  0.42965626    -0.05300
C1238       C  0.65047771  0.72364757  0.45299037    -0.23700
C1239       C  0.67705696  0.71343388  0.45258999     0.12700
C1240       C  0.69314658  0.71700979  0.42976926    -0.12800
N1241       N  0.64590359  0.75406636  0.38432174     0.64300
H1242       H  0.61988307  0.74389832  0.42959992     0.12200
N1243       N  0.68797248  0.69915846  0.47510236     0.61000
H1244       H  0.71348027  0.70908981  0.42978887     0.08400
O1245       O  0.68562124  0.72047470  0.29953978    -0.40500
O1246       O  0.71841592  0.69194047  0.30553463    -0.39700
O1247       O  0.75436764  0.74977812  0.42571595    -0.39700
O1248       O  0.72392903  0.78102427  0.42066251    -0.37400
O1249       O  0.68505651  0.67393113  0.47657731    -0.38300
O1250       O  0.70444217  0.71079573  0.49058132    -0.34400
O1251       O  0.62736417  0.74375416  0.37032824    -0.35800
O1252       O  0.65266195  0.77828799  0.38044467    -0.40100
C1253       C  0.81069532  0.87787159  0.35370040    -0.13800
C1254       C  0.82197323  0.87180903  0.37888721     0.16600
C1255       C  0.83455253  0.84673220  0.38279885     0.02900
C1256       C  0.83545271  0.82802254  0.36187303    -0.12300
C1257       C  0.82375103  0.83358381  0.33673250    -0.03400
C1258       C  0.81121926  0.85888779  0.33268033     0.02100
C1259       C  0.81898315  0.89066924  0.40177795     0.08900
N1260       N  0.84659935  0.84002107  0.40805294     0.65300
H1261       H  0.84545611  0.80894234  0.36541205     0.18200
N1262       N  0.79736525  0.86489662  0.30816738     0.75800
H1263       H  0.80047267  0.89692785  0.35073451     0.09700
C1264       C  0.83272574  0.91548830  0.40264064     0.03400
C1265       C  0.83192359  0.93115675  0.42615355    -0.05300
C1266       C  0.81761509  0.92230966  0.44897192    -0.23700
C1267       C  0.80239364  0.89828662  0.44731332     0.12700
C1268       C  0.80335046  0.88268173  0.42389561    -0.12800
N1269       N  0.84898553  0.92410036  0.38049243     0.64300
H1270       H  0.84369838  0.94954204  0.42702888     0.12200
N1271       N  0.78561040  0.88964326  0.46911904     0.61000
H1272       H  0.79207825  0.86397290  0.42306060     0.08400
O1273       O  0.80578109  0.88365681  0.29318277    -0.40500
O1274       O  0.77437422  0.85486021  0.30399508    -0.39700
O1275       O  0.83428910  0.82474065  0.42425324    -0.39700
O1276       O  0.87101664  0.84570491  0.41220517    -0.37400
O1277       O  0.76464862  0.90280106  0.47488608    -0.38300
O1278       O  0.78981272  0.86720270  0.48032299    -0.34400
O1279       O  0.84035815  0.94201474  0.36466610    -0.35800
O1280       O  0.87317181  0.91649848  0.37886625    -0.40100
C1281       C  0.69139029  0.74139436  0.14598528    -0.13800
C1282       C  0.69646667  0.72658505  0.12243894     0.16600
C1283       C  0.72242292  0.71594756  0.11819337     0.02900
C1284       C  0.74264757  0.72009472  0.13747544    -0.12300
C1285       C  0.73741488  0.73449598  0.16132368    -0.03400
C1286       C  0.71139057  0.74528941  0.16539736     0.02100
C1287       C  0.67454291  0.72392980  0.10223595     0.08900
N1288       N  0.72822758  0.69996396  0.09497940     0.65300
H1289       H  0.76232169  0.71127296  0.13411583     0.18200
N1290       N  0.70512658  0.76107772  0.18866233     0.75800
H1291       H  0.67176771  0.75039945  0.14917015     0.09700
C1292       C  0.64879789  0.71481577  0.11006731     0.03400
C1293       C  0.62693588  0.71817580  0.09274613    -0.05300
C1294       C  0.63004943  0.73006286  0.06723848    -0.23700
C1295       C  0.65616744  0.73721404  0.05848866     0.12700
C1296       C  0.67810867  0.73436392  0.07612493    -0.12800
N1297       N  0.64443929  0.70267720  0.13587582     0.64300
H1298       H  0.60720920  0.71169255  0.09953492     0.12200
N1299       N  0.66046725  0.74930223  0.03271264     0.61000
H1300       H  0.69768491  0.74179349  0.06993717     0.08400
O1301       O  0.69158481  0.75078945  0.20758304    -0.40500
O1302       O  0.70887615  0.78623350  0.18815515    -0.39700
O1303       O  0.74305689  0.70939508  0.07658749    -0.39700
O1304       O  0.72274031  0.67512365  0.09518630    -0.37400
O1305       O  0.66027960  0.77463354  0.03044916    -0.38300
O1306       O  0.66861680  0.73503391  0.01331945    -0.34400
O1307       O  0.62717351  0.71244167  0.15178433    -0.35800
O1308       O  0.65526208  0.68033402  0.14132748    -0.40100
C1309       C  0.67617214  0.56723840  0.26066880    -0.13800
C1310       C  0.67407154  0.59440025  0.26835696     0.16600
C1311       C  0.64939437  0.60393375  0.27866177     0.02900
C1312       C  0.62711631  0.58680060  0.27971892    -0.12300
C1313       C  0.62876863  0.55982963  0.27119241    -0.03400
C1314       C  0.65394967  0.54981294  0.26240136     0.02100
C1315       C  0.69670902  0.61329621  0.26316441     0.08900
N1316       N  0.64658264  0.63110289  0.28795934     0.65300
H1317       H  0.60827938  0.59485860  0.28723596     0.18200
N1318       N  0.65710207  0.52245185  0.25400406     0.75800
H1319       H  0.69487775  0.55970790  0.25235616     0.09700
C1320       C  0.72289471  0.60851702  0.27296815     0.03400
C1321       C  0.74330929  0.62746075  0.26830805    -0.05300
C1322       C  0.73811483  0.65141163  0.25408496    -0.23700
C1323       C  0.71212689  0.65558948  0.24327824     0.12700
C1324       C  0.69183987  0.63656921  0.24784482    -0.12800
N1325       N  0.72875020  0.58525203  0.28887740     0.64300
H1326       H  0.76304237  0.62388592  0.27689540     0.12200
N1327       N  0.70603464  0.67881113  0.22732500     0.61000
H1328       H  0.67207036  0.63998950  0.23927459     0.08400
O1329       O  0.66444048  0.50488533  0.27085209    -0.40500
O1330       O  0.65674479  0.51671724  0.22924773    -0.39700
O1331       O  0.62895517  0.64628731  0.27773744    -0.39700
O1332       O  0.65962402  0.63896433  0.30830403    -0.37400
O1333       O  0.71446349  0.68026723  0.20337700    -0.38300
O1334       O  0.68907986  0.69578311  0.23570760    -0.34400
O1335       O  0.74237702  0.56629336  0.27883831    -0.35800
O1336       O  0.72484333  0.58592771  0.31398449    -0.40100
C1337       C  0.96729907  0.56519522  0.27078485    -0.13800
C1338       C  0.97573182  0.58716737  0.25518115     0.16600
C1339       C  0.00128696  0.58660344  0.24292674     0.02900
C1340       C  0.01754373  0.56363242  0.24547036    -0.12300
C1341       C  0.00857786  0.54105782  0.26008199    -0.03400
C1342       C  0.98354366  0.54236331  0.27366289     0.02100
C1343       C  0.95711646  0.61019294  0.25187946     0.08900
N1344       N  0.01016090  0.60844935  0.22640229     0.65300
H1345       H  0.03658274  0.56292672  0.23480559     0.18200
N1346       N  0.97465256  0.52098549  0.29095969     0.75800
H1347       H  0.94796986  0.56590374  0.28093645     0.09700
C1348       C  0.93236440  0.60665368  0.23856266     0.03400
C1349       C  0.91295777  0.62705534  0.23934299    -0.05300
C1350       C  0.91802696  0.65151383  0.25270670    -0.23700
C1351       C  0.94331270  0.65536527  0.26531679     0.12700
C1352       C  0.96257772  0.63469911  0.26479568    -0.12800
N1353       N  0.92692424  0.58245375  0.22388159     0.64300
H1354       H  0.89401002  0.62392576  0.22897656     0.12200
N1355       N  0.94915699  0.67943286  0.28006024     0.61000
H1356       H  0.98142049  0.63735283  0.27547726     0.08400
O1357       O  0.95117779  0.51150180  0.28853916    -0.40500
O1358       O  0.98883247  0.51417694  0.31091988    -0.39700
O1359       O  0.02774302  0.62461077  0.23512034    -0.39700
O1360       O  0.00330917  0.60933545  0.20194907    -0.37400
O1361       O  0.93901202  0.68288334  0.30312027    -0.38300
O1362       O  0.96724788  0.69529828  0.27178358    -0.34400
O1363       O  0.90900967  0.56631337  0.23199591    -0.35800
O1364       O  0.94046944  0.57688984  0.20309035    -0.40100
C1365       C  0.96607380  0.34725324  0.24460398    -0.13800
C1366       C  0.95870997  0.37115668  0.25777754     0.16600
C1367       C  0.93291075  0.37322686  0.26938533     0.02900
C1368       C  0.91443549  0.35225748  0.26638905    -0.12300
C1369       C  0.92122789  0.32870997  0.25227699    -0.03400
C1370       C  0.94759924  0.32600739  0.24178782     0.02100
C1371       C  0.97636699  0.39516075  0.25612578     0.08900
N1372       N  0.92523650  0.39662197  0.28433287     0.65300
H1373       H  0.89466124  0.35438510  0.27541037     0.18200
N1374       N  0.95540569  0.30264693  0.22683132     0.75800
H1375       H  0.98573336  0.34563554  0.23524814     0.09700
C1376       C  0.00288915  0.39533521  0.26619673     0.03400
C1377       C  0.01837740  0.41895168  0.26446134    -0.05300
C1378       C  0.00768946  0.44253011  0.25296224    -0.23700
C1379       C  0.98166132  0.44173373  0.24157602     0.12700
C1380       C  0.96633249  0.41822040  0.24330941    -0.12800
N1381       N  0.01386696  0.37216050  0.27928774     0.64300
H1382       H  0.03837705  0.41916374  0.27317899     0.12200
N1383       N  0.97089688  0.46426136  0.22721231     0.61000
H1384       H  0.94644952  0.41787111  0.23431677     0.08400
O1385       O  0.97345789  0.28724187  0.23589781    -0.40500
O1386       O  0.94667990  0.29922259  0.20320710    -0.39700
O1387       O  0.90759169  0.41235754  0.27503701    -0.39700
O1388       O  0.93293175  0.39923463  0.30840711    -0.37400
O1389       O  0.97861246  0.46881229  0.20341041    -0.38300
O1390       O  0.95060422  0.47651769  0.23635865    -0.34400
O1391       O  0.03393915  0.36027419  0.26920491    -0.35800
O1392       O  0.00591718  0.36585315  0.30260758    -0.40100
C1393       C  0.84978244  0.61147938  0.35863440    -0.13800
C1394       C  0.83009608  0.61116149  0.37895732     0.16600
C1395       C  0.81330295  0.63382113  0.38232329     0.02900
C1396       C  0.81531486  0.65553472  0.36436524    -0.12300
C1397       C  0.83348540  0.65472102  0.34272872    -0.03400
C1398       C  0.85146484  0.63287825  0.34043282     0.02100
C1399       C  0.82716198  0.58658705  0.39573585     0.08900
N1400       N  0.79283132  0.63421645  0.40256373     0.65300
H1401       H  0.80142493  0.67226397  0.36629563     0.18200
N1402       N  0.87154450  0.63219460  0.31975244     0.75800
H1403       H  0.86353561  0.59466551  0.35650244     0.09700
C1404       C  0.82394194  0.56118964  0.38350039     0.03400
C1405       C  0.82455209  0.53786582  0.39919209    -0.05300
C1406       C  0.82777068  0.53901975  0.42732970    -0.23700
C1407       C  0.82984936  0.56469685  0.43974664     0.12700
C1408       C  0.82962808  0.58811636  0.42383605    -0.12800
N1409       N  0.81953581  0.55881732  0.35509918     0.64300
H1410       H  0.82197389  0.51869736  0.38910506     0.12200
N1411       N  0.83292957  0.56751848  0.46825362     0.61000
H1412       H  0.83236140  0.60754645  0.43341833     0.08400
O1413       O  0.89436454  0.64253759  0.32406125    -0.40500
O1414       O  0.86828743  0.61712769  0.29954348    -0.39700
O1415       O  0.79441254  0.65077930  0.42178134    -0.39700
O1416       O  0.77131387  0.62114740  0.39898166    -0.37400
O1417       O  0.85514771  0.56177812  0.47915395    -0.38300
O1418       O  0.81529936  0.57999943  0.48165457    -0.34400
O1419       O  0.83556143  0.54522296  0.34079674    -0.35800
O1420       O  0.79827491  0.56811456  0.34475706    -0.40100
C1421       C  0.84004062  0.41603696  0.38425885    -0.13800
C1422       C  0.82772729  0.39288614  0.39473371     0.16600
C1423       C  0.81872651  0.39284070  0.42161438     0.02900
C1424       C  0.82080929  0.41637956  0.43710144    -0.12300
C1425       C  0.83211323  0.44004713  0.42624016    -0.03400
C1426       C  0.84266334  0.43936145  0.39976276     0.02100
C1427       C  0.82540340  0.36898138  0.37712117     0.08900
N1428       N  0.80658907  0.36937616  0.43309513     0.65300
H1429       H  0.81274491  0.41632862  0.45738928     0.18200
N1430       N  0.85711507  0.46171769  0.38866062     0.75800
H1431       H  0.84807714  0.41583709  0.36394232     0.09700
C1432       C  0.81130224  0.37067834  0.35259250     0.03400
C1433       C  0.81360076  0.35003500  0.33366236    -0.05300
C1434       C  0.82954337  0.32727729  0.33879073    -0.23700
C1435       C  0.84287409  0.32503196  0.36384918     0.12700
C1436       C  0.84059000  0.34586327  0.38282299    -0.12800
N1437       N  0.79462964  0.39339339  0.34665197     0.64300
H1438       H  0.80259580  0.35172153  0.31489212     0.12200
N1439       N  0.86031218  0.30281257  0.36954716     0.61000
H1440       H  0.85200343  0.34472152  0.40138323     0.08400
O1441       O  0.84775743  0.47405230  0.36850840    -0.40500
O1442       O  0.88125418  0.46566168  0.39556517    -0.39700
O1443       O  0.81963316  0.35529487  0.44973932    -0.39700
O1444       O  0.78175097  0.36511389  0.42982708    -0.37400
O1445       O  0.88187454  0.29999509  0.35635809    -0.38300
O1446       O  0.85627442  0.28852876  0.39020090    -0.34400
O1447       O  0.80032164  0.40853753  0.32701933    -0.35800
O1448       O  0.77234315  0.39609197  0.35858183    -0.40100
C1449       C  0.43954080  0.60990700  0.73050596    -0.13800
C1450       C  0.46166195  0.61268135  0.74776085     0.16600
C1451       C  0.46256592  0.63445552  0.76596379     0.02900
C1452       C  0.44170958  0.65333790  0.76627430    -0.12300
C1453       C  0.41973434  0.65084440  0.74872948    -0.03400
C1454       C  0.41869691  0.62889470  0.73060463     0.02100
C1455       C  0.48545797  0.59536330  0.74352760     0.08900
N1456       N  0.48465036  0.63765061  0.78414580     0.65300
H1457       H  0.44260732  0.66994409  0.78043426     0.18200
N1458       N  0.39786330  0.62677827  0.71076559     0.75800
H1459       H  0.43932099  0.59388916  0.71567445     0.09700
C1460       C  0.48466402  0.56728737  0.74753343     0.03400
C1461       C  0.50784328  0.55182248  0.74298132    -0.05300
C1462       C  0.53186596  0.56390318  0.73393909    -0.23700
C1463       C  0.53202150  0.59203892  0.72876470     0.12700
C1464       C  0.50906471  0.60736778  0.73390776    -0.12800
N1465       N  0.46071616  0.55437547  0.75697120     0.64300
H1466       H  0.50713323  0.53040251  0.74713826     0.12200
N1467       N  0.55502944  0.60540530  0.71763965     0.61000
H1468       H  0.50950465  0.62884095  0.72984241     0.08400
O1469       O  0.38609033  0.60452025  0.70710260    -0.40500
O1470       O  0.39440258  0.64564720  0.69405204    -0.39700
O1471       O  0.50056649  0.65731912  0.78142495    -0.39700
O1472       O  0.48584411  0.62329879  0.80509936    -0.37400
O1473       O  0.55922107  0.60445740  0.69258242    -0.38300
O1474       O  0.56836938  0.62165160  0.73194849    -0.34400
O1475       O  0.44424974  0.54463572  0.74024659    -0.35800
O1476       O  0.45832517  0.54871577  0.78163715    -0.40100
C1477       C  0.43651531  0.72655970  0.88382634    -0.13800
C1478       C  0.45680733  0.74604609  0.88065006     0.16600
C1479       C  0.45538484  0.76441632  0.85909167     0.02900
C1480       C  0.43420409  0.76259631  0.84065918    -0.12300
C1481       C  0.41458500  0.74237141  0.84305696    -0.03400
C1482       C  0.41543643  0.72454530  0.86516222     0.02100
C1483       C  0.48145813  0.74401419  0.89707194     0.08900
N1484       N  0.47632916  0.78370989  0.85454640     0.65300
H1485       H  0.43362784  0.77644816  0.82376840     0.18200
N1486       N  0.39663254  0.70280225  0.86743557     0.75800
H1487       H  0.43789143  0.71195527  0.90001060     0.09700
C1488       C  0.48653088  0.76088673  0.91926700     0.03400
C1489       C  0.51049021  0.75783015  0.93395148    -0.05300
C1490       C  0.52978094  0.73847646  0.92641804    -0.23700
C1491       C  0.52439578  0.72153118  0.90414453     0.12700
C1492       C  0.50038893  0.72454843  0.88977927    -0.12800
N1493       N  0.46778680  0.78137255  0.92681120     0.64300
H1494       H  0.51439462  0.77117192  0.95078463     0.12200
N1495       N  0.54233197  0.70025987  0.89662735     0.61000
H1496       H  0.49627485  0.71136299  0.87285653     0.08400
O1497       O  0.37757618  0.70419608  0.88420658    -0.40500
O1498       O  0.40124132  0.68083542  0.85548653    -0.39700
O1499       O  0.49900534  0.77589663  0.84613788    -0.39700
O1500       O  0.47082024  0.80853132  0.85431871    -0.37400
O1501       O  0.54895351  0.68285650  0.91392354    -0.38300
O1502       O  0.54685145  0.69565628  0.87202234    -0.34400
O1503       O  0.45268656  0.77782559  0.94696101    -0.35800
O1504       O  0.46958001  0.80450582  0.91638566    -0.40100
C1505       C  0.17883184  0.57501021  0.78548586    -0.13800
C1506       C  0.18251082  0.58331835  0.75869024     0.16600
C1507       C  0.17056594  0.56842218  0.73770889     0.02900
C1508       C  0.15545966  0.54536547  0.74374518    -0.12300
C1509       C  0.15214402  0.53690967  0.77047529    -0.03400
C1510       C  0.16370120  0.55193571  0.79149460     0.02100
C1511       C  0.20113594  0.60586560  0.75299973     0.08900
N1512       N  0.17368467  0.57649839  0.71024672     0.65300
H1513       H  0.14652637  0.53383024  0.72749812     0.18200
N1514       N  0.16047635  0.54377114  0.81891395     0.75800
H1515       H  0.18825012  0.58615899  0.80172222     0.09700
C1516       C  0.19574238  0.63215880  0.76209312     0.03400
C1517       C  0.21535559  0.65224363  0.75937774    -0.05300
C1518       C  0.24057934  0.64658519  0.74775802    -0.23700
C1519       C  0.24556686  0.62031134  0.73787940     0.12700
C1520       C  0.22586221  0.60029391  0.74058419    -0.12800
N1521       N  0.17045278  0.63869360  0.77419376     0.64300
H1522       H  0.21099053  0.67222469  0.76702997     0.12200
N1523       N  0.27043633  0.61356255  0.72503321     0.61000
H1524       H  0.23020388  0.58004117  0.73365698     0.08400
O1525       O  0.13866291  0.54849990  0.83107614    -0.40500
O1526       O  0.18028591  0.53442775  0.83177129    -0.39700
O1527       O  0.18875100  0.56312445  0.69475184    -0.39700
O1528       O  0.15847948  0.59441319  0.70058880    -0.37400
O1529       O  0.28854789  0.60166451  0.73829149    -0.38300
O1530       O  0.27214469  0.61460660  0.69969273    -0.34400
O1531       O  0.16932836  0.64410574  0.79900347    -0.35800
O1532       O  0.15034269  0.64341938  0.75941671    -0.40100
C1533       C  0.33178193  0.58353197  0.58112550    -0.13800
C1534       C  0.31275397  0.58574509  0.60185167     0.16600
C1535       C  0.29309156  0.56549623  0.60506127     0.02900
C1536       C  0.29382670  0.54258113  0.58861995    -0.12300
C1537       C  0.31345458  0.53986797  0.56841359    -0.03400
C1538       C  0.33222354  0.56085337  0.56434756     0.02100
C1539       C  0.31574253  0.60764123  0.62179229     0.08900
N1540       N  0.27226139  0.56806193  0.62482031     0.65300
H1541       H  0.27902523  0.52678916  0.59167881     0.18200
N1542       N  0.35330047  0.55835220  0.54490987     0.75800
H1543       H  0.34714958  0.59889691  0.57879325     0.09700
C1544       C  0.32717383  0.60245678  0.64718127     0.03400
C1545       C  0.33013712  0.62339801  0.66575837    -0.05300
C1546       C  0.32251292  0.64994266  0.65938939    -0.23700
C1547       C  0.31113468  0.65506461  0.63372735     0.12700
C1548       C  0.30789808  0.63392173  0.61521968    -0.12800
N1549       N  0.33696672  0.57621424  0.65391138     0.64300
H1550       H  0.33895327  0.61885274  0.68516635     0.12200
N1551       N  0.30168270  0.68125722  0.62649756     0.61000
H1552       H  0.29901443  0.63798513  0.59570479     0.08400
O1553       O  0.37492662  0.54661141  0.55120791    -0.40500
O1554       O  0.35175447  0.57089748  0.52285543    -0.39700
O1555       O  0.25341422  0.58467265  0.62101897    -0.39700
O1556       O  0.27014624  0.55079775  0.64338038    -0.37400
O1557       O  0.27773647  0.68775292  0.63193972    -0.40700
O1558       O  0.31504065  0.69533902  0.61004739    -0.34400
O1559       O  0.35937827  0.56851627  0.64472115    -0.35800
O1560       O  0.32580424  0.56291210  0.67250403    -0.40100
C1561       C  0.34813063  0.87299928  0.64460960    -0.13800
C1562       C  0.33607557  0.86745555  0.61965822     0.16600
C1563       C  0.32192165  0.84307928  0.61619999     0.02900
C1564       C  0.32053432  0.82444899  0.63725858    -0.12300
C1565       C  0.33305866  0.82955227  0.66209092    -0.03400
C1566       C  0.34689287  0.85422145  0.66577294     0.02100
C1567       C  0.34025161  0.88592678  0.59653756     0.08900
N1568       N  0.30867993  0.83707304  0.59135959     0.65300
H1569       H  0.30949518  0.80584360  0.63413768     0.18200
N1570       N  0.36137680  0.85965833  0.69006547     0.75800
H1571       H  0.35956466  0.89142808  0.64725425     0.09700
C1572       C  0.32995055  0.91237265  0.59627416     0.03400
C1573       C  0.33249561  0.92828388  0.57298919    -0.05300
C1574       C  0.34532811  0.91816243  0.54986076    -0.23700
C1575       C  0.35740525  0.89236653  0.55102237     0.12700
C1576       C  0.35452632  0.87649529  0.57411077    -0.12800
N1577       N  0.31554163  0.92271142  0.61892532     0.64300
H1578       H  0.32320754  0.94803021  0.57256492     0.12200
N1579       N  0.37308575  0.88217201  0.52908785     0.61000
H1580       H  0.36347710  0.85658192  0.57454162     0.08400
O1581       O  0.38337426  0.84776691  0.69452569    -0.40500
O1582       O  0.35436381  0.87902613  0.70495455    -0.39700
O1583       O  0.31889981  0.82018173  0.57535089    -0.39700
O1584       O  0.28491530  0.84518035  0.58753696    -0.37400
O1585       O  0.36547345  0.86135132  0.51662294    -0.38300
O1586       O  0.39618081  0.89181552  0.52454196    -0.34400
O1587       O  0.32660487  0.93967478  0.63428808    -0.35800
O1588       O  0.29086992  0.91729393  0.62178953    -0.40100
C1589       C  0.50235321  0.74359799  0.59821560    -0.13800
C1590       C  0.47505990  0.73653763  0.59753196     0.16600
C1591       C  0.46344756  0.72807576  0.57320390     0.02900
C1592       C  0.47921259  0.72636723  0.54996775    -0.12300
C1593       C  0.50668882  0.73341439  0.55022363    -0.03400
C1594       C  0.51819586  0.74247685  0.57477432     0.02100
C1595       C  0.45840883  0.73855170  0.62206121     0.08900
N1596       N  0.43546488  0.72146108  0.57179404     0.65300
H1597       H  0.46972282  0.71941628  0.53161832     0.18200
N1598       N  0.54540700  0.75185078  0.57609138     0.75800
H1599       H  0.51121537  0.75060610  0.61689091     0.09700
C1600       C  0.45467963  0.71608976  0.63901892     0.03400
C1601       C  0.43622346  0.71748988  0.66028426    -0.05300
C1602       C  0.42146591  0.74108642  0.66481754    -0.23700
C1603       C  0.42596496  0.76391988  0.64861939     0.12700
C1604       C  0.44425345  0.76246343  0.62718092    -0.12800
N1605       N  0.46879902  0.69148386  0.63422847     0.64300
H1606       H  0.43275304  0.69985770  0.67273285     0.12200
N1607       N  0.41223243  0.78866130  0.65399400     0.61000
H1608       H  0.44715425  0.77984409  0.61426198     0.08400
O1609       O  0.56208467  0.73991806  0.59107750    -0.40500
O1610       O  0.55126856  0.77474057  0.56663722    -0.39700
O1611       O  0.41856983  0.73947126  0.56583455    -0.39700
O1612       O  0.42807848  0.69715052  0.57300735    -0.37400
O1613       O  0.41759945  0.80184636  0.67505382    -0.38300
O1614       O  0.39376696  0.79663376  0.63848802    -0.34400
O1615       O  0.49087075  0.68719894  0.64603481    -0.35800
O1616       O  0.45717863  0.67242459  0.62205695    -0.40100
C1617       C  0.46552366  0.34225259  0.73514035    -0.13800
C1618       C  0.46132936  0.36672238  0.74862431     0.16600
C1619       C  0.43586896  0.37215358  0.75986948     0.02900
C1620       C  0.41526729  0.35290003  0.75794109    -0.12300
C1621       C  0.41974304  0.32791340  0.74532519    -0.03400
C1622       C  0.44514492  0.32287634  0.73344951     0.02100
C1623       C  0.48386029  0.38628236  0.75014880     0.08900
N1624       N  0.43110100  0.39647170  0.77452884     0.65300
H1625       H  0.39603553  0.35710305  0.76737513     0.18200
N1626       N  0.45041542  0.29851678  0.71898707     0.75800
H1627       H  0.48480401  0.33820372  0.72572498     0.09700
C1628       C  0.50861279  0.37863482  0.76154420     0.03400
C1629       C  0.53087916  0.39561610  0.75930564    -0.05300
C1630       C  0.52920921  0.42061485  0.74601384    -0.23700
C1631       C  0.50398447  0.42895620  0.73578779     0.12700
C1632       C  0.48161649  0.41165063  0.73776506    -0.12800
N1633       N  0.51146800  0.35350738  0.77537495     0.64300
H1634       H  0.54974744  0.38893904  0.76797916     0.12200
N1635       N  0.50099810  0.45413659  0.72214382     0.61000
H1636       H  0.46267377  0.41764010  0.72875983     0.08400
O1637       O  0.46489853  0.28047590  0.72949960    -0.40500
O1638       O  0.44432543  0.29692907  0.69436496    -0.39700
O1639       O  0.41392064  0.41317171  0.76608937    -0.39700
O1640       O  0.44096855  0.39929961  0.79777453    -0.37400
O1641       O  0.49891818  0.45454823  0.69681615    -0.38300
O1642       O  0.49541839  0.47503751  0.73549328    -0.34400
O1643       O  0.52628019  0.33531538  0.76559343    -0.35800
O1644       O  0.50289804  0.35122921  0.79920468    -0.40100
C1645       C  0.43977143  0.22697713  0.88001864    -0.13800
C1646       C  0.46455641  0.23861592  0.87268047     0.16600
C1647       C  0.46730810  0.24959280  0.84654429     0.02900
C1648       C  0.44595512  0.24802845  0.82827144    -0.12300
C1649       C  0.42123255  0.23622245  0.83540872    -0.03400
C1650       C  0.41816293  0.22575101  0.86177822     0.02100
C1651       C  0.48814188  0.23678194  0.89127836     0.08900
N1652       N  0.49153834  0.26294192  0.83835586     0.65300
H1653       H  0.44863480  0.25679642  0.80844545     0.18200
N1654       N  0.39383926  0.21257468  0.86996943     0.75800
H1655       H  0.43749190  0.21773302  0.89966241     0.09700
C1656       C  0.48667548  0.24433689  0.91869358     0.03400
C1657       C  0.50941505  0.24167951  0.93536207    -0.05300
C1658       C  0.53412714  0.23239744  0.92507326    -0.23700
C1659       C  0.53531626  0.22441432  0.89769294     0.12700
C1660       C  0.51242685  0.22624047  0.88142207    -0.12800
N1661       N  0.46273094  0.25608255  0.92956118     0.64300
H1662       H  0.50803905  0.24822475  0.95613686     0.12200
N1663       N  0.55954925  0.21420753  0.88594396     0.61000
H1664       H  0.51370841  0.21926217  0.86078334     0.08400
O1665       O  0.38059004  0.22157553  0.88971150    -0.40500
O1666       O  0.38775496  0.18993296  0.86009616    -0.39700
O1667       O  0.50414218  0.25486706  0.81779740    -0.39700
O1668       O  0.49816642  0.28493449  0.84926890    -0.37400
O1669       O  0.56540896  0.18960729  0.88855473    -0.38300
O1670       O  0.57258991  0.22856089  0.86945768    -0.34400
O1671       O  0.45099791  0.24509905  0.94928608    -0.35800
O1672       O  0.45527846  0.27908970  0.92171134    -0.40100
C1673       C  0.34065819  0.37335359  0.64173183    -0.13800
C1674       C  0.31928243  0.37259525  0.62325094     0.16600
C1675       C  0.30207030  0.35004916  0.62260587     0.02900
C1676       C  0.30618646  0.32882588  0.64072862    -0.12300
C1677       C  0.32691520  0.33003337  0.65989570    -0.03400
C1678       C  0.34465871  0.35220116  0.65996165     0.02100
C1679       C  0.31534889  0.39565589  0.60486258     0.08900
N1680       N  0.27954775  0.34913224  0.60467517     0.65300
H1681       H  0.29234061  0.31191138  0.64069440     0.18200
N1682       N  0.36746489  0.35282388  0.67752950     0.75800
H1683       H  0.35433719  0.39039958  0.64186787     0.09700
C1684       C  0.30714662  0.42075071  0.61500893     0.03400
C1685       C  0.30680752  0.44321959  0.59805833    -0.05300
C1686       C  0.31439056  0.44131735  0.57075926    -0.23700
C1687       C  0.32161342  0.41566781  0.56039393     0.12700
C1688       C  0.32194344  0.39315111  0.57752539    -0.12800
N1689       N  0.29912254  0.42365413  0.64257393     0.64300
H1690       H  0.30060430  0.46233882  0.60655001     0.12200
N1691       N  0.32979166  0.41218685  0.53298646     0.61000
H1692       H  0.32838099  0.37380928  0.56969659     0.08400
O1693       O  0.36786300  0.36878971  0.69729983    -0.40500
O1694       O  0.38852621  0.34005488  0.67125789    -0.39700
O1695       O  0.27684353  0.32958401  0.58864819    -0.39700
O1696       O  0.26072207  0.36602335  0.60715083    -0.37400
O1697       O  0.35377432  0.41729799  0.52623177    -0.38300
O1698       O  0.31457132  0.39988112  0.51676872    -0.34400
O1699       O  0.31014229  0.44123874  0.65726578    -0.35800
O1700       O  0.27955061  0.41014911  0.65164935    -0.40100
C1701       C  0.19912370  0.34547035  0.77769690    -0.13800
C1702       C  0.20185012  0.36955946  0.76319118     0.16600
C1703       C  0.22343370  0.37259247  0.74502887     0.02900
C1704       C  0.24247786  0.35198830  0.74228445    -0.12300
C1705       C  0.23998611  0.32787599  0.75687780    -0.03400
C1706       C  0.21789326  0.32457921  0.77458727     0.02100
C1707       C  0.18383707  0.39252212  0.76914607     0.08900
N1708       N  0.22605291  0.39646956  0.72909390     0.65300
H1709       H  0.25909072  0.35468301  0.72835285     0.18200
N1710       N  0.21533742  0.30100997  0.79096734     0.75800
H1711       H  0.18282771  0.34321718  0.79206894     0.09700
C1712       C  0.15787459  0.39430514  0.75800296     0.03400
C1713       C  0.14215597  0.41730533  0.76266692    -0.05300
C1714       C  0.15195215  0.43864580  0.77852578    -0.23700
C1715       C  0.17737858  0.43602389  0.79102214     0.12700
C1716       C  0.19323439  0.41324695  0.78585712    -0.12800
N1717       N  0.14779494  0.37347740  0.74089807     0.64300
H1718       H  0.12274728  0.41898213  0.75285460     0.12200
N1719       N  0.18694144  0.45591140  0.80961479     0.61000
H1720       H  0.21294082  0.41158284  0.79508209     0.08400
O1721       O  0.19942397  0.28243729  0.78399741    -0.40500
O1722       O  0.22512674  0.30094188  0.81441213    -0.39700
O1723       O  0.24654389  0.41131754  0.73161713    -0.39700
O1724       O  0.20957322  0.40093348  0.71028197    -0.37400
O1725       O  0.17367506  0.46082931  0.83075134    -0.38300
O1726       O  0.21007151  0.46608006  0.80668430    -0.34400
O1727       O  0.13239213  0.35561033  0.75042913    -0.35800
O1728       O  0.15145986  0.37488335  0.71578278    -0.40100
C1729       C  0.31833428  0.13859850  0.60809948    -0.13800
C1730       C  0.33241255  0.11448688  0.61196587     0.16600
C1731       C  0.34346956  0.10872096  0.63739839     0.02900
C1732       C  0.34078042  0.12730861  0.65845052    -0.12300
C1733       C  0.32732035  0.15191449  0.65454119    -0.03400
C1734       C  0.31558027  0.15725788  0.62909898     0.02100
C1735       C  0.33610754  0.09595153  0.58897374     0.08900
N1736       N  0.35824074  0.08444305  0.64185142     0.65300
H1737       H  0.35006608  0.12281333  0.67768172     0.18200
N1738       N  0.30033937  0.18122909  0.62438287     0.75800
H1739       H  0.30952505  0.14298564  0.58861757     0.09700
C1740       C  0.31805732  0.07459778  0.58426763     0.03400
C1741       C  0.32211311  0.05735260  0.56228413    -0.05300
C1742       C  0.34357333  0.06161031  0.54432919    -0.23700
C1743       C  0.36164284  0.08310024  0.54907313     0.12700
C1744       C  0.35779196  0.10002086  0.57135482    -0.12800
N1745       N  0.29477202  0.07114152  0.60084014     0.64300
H1746       H  0.30772388  0.04134748  0.55851984     0.12200
N1747       N  0.38433345  0.08754334  0.53184066     0.61000
H1748       H  0.37180914  0.11638486  0.57498924     0.08400
O1749       O  0.27539653  0.18137056  0.62927920    -0.40500
O1750       O  0.31063980  0.20033000  0.61109024    -0.39700
O1751       O  0.38358034  0.08467595  0.63993002    -0.39700
O1752       O  0.34660769  0.06435504  0.65226699    -0.37400
O1753       O  0.40337059  0.07071787  0.53147438    -0.38300
O1754       O  0.38702069  0.10979171  0.51979298    -0.34400
O1755       O  0.27364141  0.08428376  0.59573110    -0.35800
O1756       O  0.29416585  0.05261283  0.61823900    -0.40100
C1757       C  0.34058902  0.06199486  0.39783525    -0.13800
C1758       C  0.35154801  0.08804212  0.39795525     0.16600
C1759       C  0.36366699  0.09783377  0.42165546     0.02900
C1760       C  0.36304280  0.08240040  0.44520594    -0.12300
C1761       C  0.35072167  0.05688824  0.44573989    -0.03400
C1762       C  0.34014697  0.04633154  0.42141938     0.02100
C1763       C  0.34577961  0.10673442  0.37539178     0.08900
N1764       N  0.37590127  0.12393358  0.42225312     0.65300
H1765       H  0.37191040  0.09072144  0.46332727     0.18200
N1766       N  0.32705002  0.02070195  0.42069982     0.75800
H1767       H  0.33084305  0.05443898  0.37982651     0.09700
C1768       C  0.35593708  0.10303852  0.34913691     0.03400
C1769       C  0.35053680  0.12237424  0.32913117    -0.05300
C1770       C  0.33491726  0.14533474  0.33492819    -0.23700
C1771       C  0.32327569  0.14775497  0.36076611     0.12700
C1772       C  0.32885917  0.12864893  0.38059972    -0.12800
N1773       N  0.37242859  0.08034230  0.34276951     0.64300
H1774       H  0.35941811  0.11992277  0.30933167     0.12200
N1775       N  0.30415499  0.16835754  0.36672753     0.61000
H1776       H  0.31976286  0.13090040  0.40033734     0.08400
O1777       O  0.33929530  0.00061536  0.41108947    -0.40500
O1778       O  0.30208683  0.01917917  0.42525924    -0.39700
O1779       O  0.36499262  0.14277370  0.43537183    -0.39700
O1780       O  0.39915913  0.12722151  0.41251868    -0.37400
O1781       O  0.31197712  0.18972824  0.37807703    -0.38300
O1782       O  0.27958085  0.16201119  0.36786826    -0.34400
O1783       O  0.36348131  0.06211197  0.32747060    -0.35800
O1784       O  0.39703327  0.08048209  0.34908697    -0.40100
C1785       C  0.46502633  0.22810345  0.56771649    -0.13800
C1786       C  0.47376729  0.24100665  0.59117567     0.16600
C1787       C  0.49978391  0.25221224  0.59215621     0.02900
C1788       C  0.51628628  0.25137906  0.56925048    -0.12300
C1789       C  0.50708019  0.23953707  0.54524578    -0.03400
C1790       C  0.48143891  0.22706280  0.54489621     0.02100
C1791       C  0.45523680  0.24233352  0.61434839     0.08900
N1792       N  0.50910415  0.26566429  0.61581554     0.65300
H1793       H  0.53584823  0.26106416  0.56991112     0.18200
N1794       N  0.47208326  0.21254502  0.52183403     0.75800
H1795       H  0.44532786  0.21866318  0.56719064     0.09700
C1796       C  0.43164181  0.25793572  0.61298067     0.03400
C1797       C  0.41291400  0.25687296  0.63394987    -0.05300
C1798       C  0.41725695  0.24029111  0.65642222    -0.23700
C1799       C  0.44106195  0.22478604  0.65789807     0.12700
C1800       C  0.45996561  0.22613294  0.63696862    -0.12800
N1801       N  0.42659038  0.27508736  0.59042244     0.64300
H1802       H  0.39491655  0.26915348  0.63268508     0.12200
N1803       N  0.44545596  0.20629503  0.67955252     0.61000
H1804       H  0.47783621  0.21364014  0.63781595     0.08400
O1805       O  0.45175108  0.22085461  0.50907804    -0.40500
O1806       O  0.48107324  0.18922334  0.51719438    -0.39700
O1807       O  0.52633480  0.25448165  0.63075085    -0.39700
O1808       O  0.50281888  0.28996603  0.61984428    -0.37400
O1809       O  0.43270017  0.18427734  0.68017088    -0.38300
O1810       O  0.46483742  0.21001000  0.69553908    -0.34400
O1811       O  0.41233703  0.26667518  0.57114365    -0.35800
O1812       O  0.43274555  0.29973470  0.59170085    -0.40100
C1813       C  0.45960805  0.25937973  0.35691954    -0.13800
C1814       C  0.45982318  0.23998108  0.37745430     0.16600
C1815       C  0.44054526  0.21911072  0.37730491     0.02900
C1816       C  0.42088515  0.21834933  0.35713513    -0.12300
C1817       C  0.42038687  0.23798987  0.33683941    -0.03400
C1818       C  0.44000567  0.25857414  0.33665372     0.02100
C1819       C  0.47812273  0.24354828  0.40059590     0.08900
N1820       N  0.44026537  0.19903715  0.39795832     0.65300
H1821       H  0.40590911  0.20242799  0.35735869     0.18200
N1822       N  0.43898638  0.27982582  0.31717143     0.75800
H1823       H  0.47401606  0.27580530  0.35729588     0.09700
C1824       C  0.50251439  0.22928611  0.40266602     0.03400
C1825       C  0.51825209  0.23174648  0.42597909    -0.05300
C1826       C  0.50991555  0.24827654  0.44734000    -0.23700
C1827       C  0.48593520  0.26334293  0.44472166     0.12700
C1828       C  0.47025656  0.26080428  0.42146985    -0.12800
N1829       N  0.51128541  0.21198047  0.38142023     0.64300
H1830       H  0.53657173  0.22003010  0.42775190     0.12200
N1831       N  0.47754019  0.28168799  0.46528357     0.61000
H1832       H  0.45164511  0.27208493  0.41982533     0.08400
O1833       O  0.45810121  0.28305279  0.30071435    -0.40500
O1834       O  0.41881835  0.29525028  0.31621222    -0.39700
O1835       O  0.42340904  0.20071175  0.41691629    -0.39700
O1836       O  0.45305662  0.17735271  0.39451743    -0.37400
O1837       O  0.48572385  0.30577099  0.46465222    -0.38300
O1838       O  0.45834276  0.27538558  0.48073268    -0.34400
O1839       O  0.52202123  0.22201765  0.36066162    -0.35800
O1840       O  0.51218881  0.18683898  0.38514392    -0.40100
C1841       C  0.44256376  0.61259346  0.27653175    -0.13800
C1842       C  0.46340820  0.61237077  0.25748085     0.16600
C1843       C  0.46264819  0.63037059  0.23553417     0.02900
C1844       C  0.44144848  0.64875882  0.23332263    -0.12300
C1845       C  0.42083111  0.64928180  0.25260948    -0.03400
C1846       C  0.42127786  0.63088323  0.27423578     0.02100
C1847       C  0.48613289  0.59363013  0.26106203     0.08900
N1848       N  0.48374578  0.63080899  0.21592198     0.65300
H1849       H  0.44126364  0.66294526  0.21670234     0.18200
N1850       N  0.40118287  0.63170723  0.29485271     0.75800
H1851       H  0.44307674  0.59879921  0.29345940     0.09700
C1852       C  0.50506219  0.59771798  0.28173057     0.03400
C1853       C  0.52737102  0.58072964  0.28372767    -0.05300
C1854       C  0.53079305  0.55915700  0.26578924    -0.23700
C1855       C  0.51126880  0.55441807  0.24573377     0.12700
C1856       C  0.48924304  0.57186402  0.24332778    -0.12800
N1857       N  0.50229260  0.61958620  0.30025493     0.64300
H1858       H  0.54225463  0.58455978  0.29922931     0.12200
N1859       N  0.51437917  0.53301751  0.22673918     0.61000
H1860       H  0.47467283  0.56862366  0.22740908     0.08400
O1861       O  0.40487080  0.64617952  0.31542132    -0.40500
O1862       O  0.38204355  0.61495608  0.29454001    -0.39700
O1863       O  0.47894666  0.62354371  0.19204609    -0.39700
O1864       O  0.50580824  0.64221357  0.22136428    -0.37400
O1865       O  0.50286658  0.51070200  0.23085738    -0.38300
O1866       O  0.52527449  0.53761466  0.20422458    -0.34400
O1867       O  0.49080319  0.61575141  0.32261603    -0.35800
O1868       O  0.51480857  0.64134482  0.29609553    -0.40100
C1869       C  0.44120255  0.76159421  0.11767723    -0.13800
C1870       C  0.46430628  0.74563114  0.12090208     0.16600
C1871       C  0.46637712  0.72880889  0.14376453     0.02900
C1872       C  0.44587687  0.72857318  0.16307940    -0.12300
C1873       C  0.42282567  0.74454276  0.15999166    -0.03400
C1874       C  0.42056242  0.76132393  0.13706564     0.02100
C1875       C  0.48750700  0.74873101  0.10217830     0.08900
N1876       N  0.48910597  0.71151272  0.14742308     0.65300
H1877       H  0.44776276  0.71534617  0.18036384     0.18200
N1878       N  0.39845854  0.77959504  0.13421091     0.75800
H1879       H  0.43978050  0.77528952  0.10073379     0.09700
C1880       C  0.48537625  0.74428925  0.07419106     0.03400
C1881       C  0.50855615  0.74525314  0.05791871    -0.05300
C1882       C  0.53400449  0.75075067  0.06911687    -0.23700
C1883       C  0.53552365  0.75742276  0.09684169     0.12700
C1884       C  0.51247817  0.75620073  0.11292820    -0.12800
N1885       N  0.46011877  0.73743959  0.06224489     0.64300
H1886       H  0.50676296  0.74035617  0.03672969     0.12200
N1887       N  0.56029007  0.76557700  0.10910965     0.61000
H1888       H  0.51414196  0.76100068  0.13416366     0.08400
O1889       O  0.38357402  0.77841499  0.11365595    -0.40500
O1890       O  0.39590309  0.79899191  0.15046019    -0.39700
O1891       O  0.50445057  0.71480117  0.16740797    -0.39700
O1892       O  0.49187242  0.69098908  0.13267942    -0.37400
O1893       O  0.56955771  0.78885260  0.10464451    -0.38300
O1894       O  0.57084424  0.75108898  0.12713225    -0.34400
O1895       O  0.44838393  0.75418690  0.04715870    -0.35800
O1896       O  0.45150355  0.71354379  0.06365054    -0.40100
C1897       C  0.43699628  0.74928714  0.38372702    -0.13800
C1898       C  0.45869939  0.73149535  0.38107072     0.16600
C1899       C  0.46156235  0.71636092  0.35725113     0.02900
C1900       C  0.44258880  0.71913876  0.33654587    -0.12300
C1901       C  0.42039892  0.73644987  0.33946663    -0.03400
C1902       C  0.41783112  0.75182236  0.36326667     0.02100
C1903       C  0.47675738  0.72771225  0.40437446     0.08900
N1904       N  0.48268985  0.69703533  0.35446250     0.65300
H1905       H  0.44465466  0.70696037  0.31853703     0.18200
N1906       N  0.39618417  0.77045911  0.36678838     0.75800
H1907       H  0.43469855  0.76096518  0.40203781     0.09700
C1908       C  0.50254093  0.73953861  0.40543881     0.03400
C1909       C  0.51807726  0.73700820  0.42889895    -0.05300
C1910       C  0.50792312  0.72348846  0.45164575    -0.23700
C1911       C  0.48246416  0.71084923  0.45005856     0.12700
C1912       C  0.46713314  0.71317124  0.42655820    -0.12800
N1913       N  0.51236538  0.75569300  0.38365588     0.64300
H1914       H  0.53742341  0.74709733  0.42990463     0.12200
N1915       N  0.47209180  0.69522005  0.47196476     0.61000
H1916       H  0.44744461  0.70374104  0.42565831     0.08400
O1917       O  0.40043585  0.79528644  0.36326164    -0.40500
O1918       O  0.37515375  0.76301416  0.37900588    -0.39700
O1919       O  0.47790363  0.67250083  0.35920899    -0.39700
O1920       O  0.50408048  0.70350463  0.34232982    -0.37400
O1921       O  0.44995429  0.70156969  0.48272188    -0.38300
O1922       O  0.48289284  0.67295666  0.47778455    -0.34400
O1923       O  0.50109545  0.77784278  0.37830090    -0.35800
O1924       O  0.53453928  0.74998504  0.37261900    -0.40100
C1925       C  0.32090791  0.90113492  0.40916038    -0.13800
C1926       C  0.34009748  0.88051284  0.40724555     0.16600
C1927       C  0.35995631  0.87793862  0.42724679     0.02900
C1928       C  0.35979429  0.89538632  0.44932028    -0.12300
C1929       C  0.34007963  0.91546731  0.45182339    -0.03400
C1930       C  0.32072116  0.91864250  0.43130643     0.02100
C1931       C  0.33866293  0.86136058  0.38462248     0.08900
N1932       N  0.37978047  0.85710323  0.42588081     0.65300
H1933       H  0.37486407  0.89288868  0.46490569     0.18200
N1934       N  0.29974338  0.93821703  0.43352056     0.75800
H1935       H  0.30557184  0.90312317  0.39376599     0.09700
C1936       C  0.31884920  0.84107875  0.38417448     0.03400
C1937       C  0.31757113  0.82326748  0.36243690    -0.05300
C1938       C  0.33563242  0.82556037  0.34082120    -0.23700
C1939       C  0.35541530  0.84602655  0.34118115     0.12700
C1940       C  0.35690651  0.86363989  0.36318432    -0.12800
N1941       N  0.30021554  0.83810105  0.40593393     0.64300
H1942       H  0.30238205  0.80754337  0.36243934     0.12200
N1943       N  0.37450549  0.84869628  0.31976750     0.61000
H1944       H  0.37220986  0.87923591  0.36349343     0.08400
O1945       O  0.27971417  0.93339069  0.44843499    -0.40500
O1946       O  0.29839557  0.95709149  0.41654097    -0.39700
O1947       O  0.40441332  0.86321646  0.42437374    -0.39700
O1948       O  0.37306024  0.83296022  0.43028739    -0.37400
O1949       O  0.36944946  0.86429878  0.30035664    -0.38300
O1950       O  0.39806396  0.83965355  0.32267953    -0.34400
O1951       O  0.27574008  0.84397552  0.40252162    -0.35800
O1952       O  0.30744965  0.82634786  0.42727379    -0.40100
C1953       C  0.19457373  0.55973604  0.23292795    -0.13800
C1954       C  0.18461669  0.58442470  0.24226750     0.16600
C1955       C  0.15750804  0.58619492  0.25046285     0.02900
C1956       C  0.14128865  0.56298821  0.25059528    -0.12300
C1957       C  0.15177800  0.53783596  0.24279316    -0.03400
C1958       C  0.17854350  0.53660803  0.23298292     0.02100
C1959       C  0.20335260  0.60766898  0.24377226     0.08900
N1960       N  0.14666807  0.61102643  0.26016834     0.65300
H1961       H  0.12084619  0.56446138  0.25810026     0.18200
N1962       N  0.18974438  0.51213984  0.22265487     0.75800
H1963       H  0.21511858  0.55838348  0.22564127     0.09700
C1964       C  0.22763932  0.60533690  0.25819779     0.03400
C1965       C  0.24678595  0.62584306  0.25675555    -0.05300
C1966       C  0.24186398  0.64964383  0.24245291    -0.23700
C1967       C  0.21735231  0.65228675  0.22825893     0.12700
C1968       C  0.19841458  0.63119801  0.22881753    -0.12800
N1969       N  0.23276775  0.58252225  0.27506505     0.64300
H1970       H  0.26546845  0.62343039  0.26747537     0.12200
N1971       N  0.21220663  0.67533707  0.21180369     0.61000
H1972       H  0.18014110  0.63291303  0.21703323     0.08400
O1973       O  0.20926387  0.50109038  0.23458750    -0.40500
O1974       O  0.18243145  0.50350615  0.19989674    -0.39700
O1975       O  0.12873997  0.62309194  0.24682226    -0.39700
O1976       O  0.15280712  0.61932824  0.28338990    -0.37400
O1977       O  0.21797124  0.67463755  0.18704937    -0.38300
O1978       O  0.19786495  0.69427674  0.22081352    -0.34400
O1979       O  0.25277321  0.56755556  0.27044398    -0.35800
O1980       O  0.21952217  0.57949876  0.29656830    -0.40100
C1981       C  0.22552115  0.37572189  0.24446459    -0.13800
C1982       C  0.20101934  0.37115977  0.25781958     0.16600
C1983       C  0.19488371  0.34499436  0.26700078     0.02900
C1984       C  0.21374981  0.32425012  0.26385261    -0.12300
C1985       C  0.23900004  0.32922810  0.25201455    -0.03400
C1986       C  0.24440853  0.35511170  0.24137124     0.02100
C1987       C  0.18201847  0.39399251  0.26088901     0.08900
N1988       N  0.17023248  0.33952838  0.28083121     0.65300
H1989       H  0.20901483  0.30443677  0.27172564     0.18200
N1990       N  0.26845028  0.36052666  0.22639303     0.75800
H1991       H  0.22990018  0.39542921  0.23608821     0.09700
C1992       C  0.19073539  0.41846781  0.27234804     0.03400
C1993       C  0.17461636  0.44140787  0.27034827    -0.05300
C1994       C  0.14932893  0.44039268  0.25776643    -0.23700
C1995       C  0.13973636  0.41544769  0.24795465     0.12700
C1996       C  0.15622951  0.39254039  0.24937776    -0.12800
N1997       N  0.21600345  0.42026040  0.28605888     0.64300
H1998       H  0.18197320  0.46019436  0.27873221     0.12200
N1999       N  0.11426978  0.41345541  0.23470798     0.61000
H2000       H  0.14943111  0.37393751  0.24018498     0.08400
O2001       O  0.28586690  0.37655742  0.23568596    -0.40500
O2002       O  0.27034058  0.35254902  0.20233053    -0.39700
O2003       O  0.15276818  0.32449703  0.27008606    -0.39700
O2004       O  0.16779458  0.34611011  0.30525865    -0.37400
O2005       O  0.11207528  0.42067678  0.21043367    -0.38300
O2006       O  0.09502539  0.40125141  0.24602611    -0.34400
O2007       O  0.23425469  0.43561714  0.27718883    -0.35800
O2008       O  0.21881634  0.40915740  0.30875683    -0.40100
C2009       C  0.31824561  0.60388840  0.35525628    -0.13800
C2010       C  0.33729439  0.60572435  0.37592209     0.16600
C2011       C  0.35443292  0.62837548  0.37701473     0.02900
C2012       C  0.35167568  0.64909746  0.35794920    -0.12300
C2013       C  0.33273657  0.64712887  0.33701593    -0.03400
C2014       C  0.31600099  0.62416221  0.33578675     0.02100
C2015       C  0.33932064  0.58327433  0.39550496     0.08900
N2016       N  0.37494135  0.63040797  0.39708465     0.65300
H2017       H  0.36504382  0.66635963  0.35895216     0.18200
N2018       N  0.29622597  0.62128010  0.31519856     0.75800
H2019       H  0.30515459  0.58642297  0.35409317     0.09700
C2020       C  0.31820128  0.57752987  0.41363512     0.03400
C2021       C  0.31973832  0.55482875  0.43033786    -0.05300
C2022       C  0.34188749  0.53734099  0.42901431    -0.23700
C2023       C  0.36323798  0.54329851  0.41118227     0.12700
C2024       C  0.36167717  0.56608216  0.39449711    -0.12800
N2025       N  0.29480343  0.59423603  0.41484367     0.64300
H2026       H  0.30307018  0.55031182  0.44372695     0.12200
N2027       N  0.38689092  0.52686846  0.41033063     0.61000
H2028       H  0.37787642  0.57023939  0.38045080     0.08400
O2029       O  0.27428433  0.63392905  0.31722940    -0.40500
O2030       O  0.29809273  0.60189482  0.29885808    -0.39700
O2031       O  0.39776456  0.62013646  0.39269917    -0.39700
O2032       O  0.37208033  0.64670228  0.41637492    -0.37400
O2033       O  0.39601968  0.51892388  0.38797162    -0.38300
O2034       O  0.40106054  0.52418477  0.43125148    -0.34400
O2035       O  0.27346291  0.58679123  0.40321894    -0.35800
O2036       O  0.29396873  0.61348434  0.43142104    -0.40100
C2037       C  0.35518150  0.40990001  0.39414407    -0.13800
C2038       C  0.33415704  0.39165995  0.39899444     0.16600
C2039       C  0.31650388  0.39620701  0.42070621     0.02900
C2040       C  0.31959066  0.41936160  0.43660719    -0.12300
C2041       C  0.33991112  0.43834923  0.43094244    -0.03400
C2042       C  0.35821659  0.43312024  0.40982746     0.02100
C2043       C  0.33043987  0.36885097  0.38017067     0.08900
N2044       N  0.29432312  0.37849306  0.42564723     0.65300
H2045       H  0.30518463  0.42317590  0.45256880     0.18200
N2046       N  0.38026809  0.45088841  0.40435682     0.75800
H2047       H  0.36925433  0.40612322  0.37787420     0.09700
C2048       C  0.32502770  0.37383423  0.35284589     0.03400
C2049       C  0.32400950  0.35251909  0.33464845    -0.05300
C2050       C  0.32878457  0.32577290  0.34284183    -0.23700
C2051       C  0.33400124  0.32072794  0.37046468     0.12700
C2052       C  0.33456337  0.34225897  0.38885623    -0.12800
N2053       N  0.32098894  0.40065492  0.34314212     0.64300
H2054       H  0.31978223  0.35725305  0.31377066     0.12200
N2055       N  0.34019703  0.29426692  0.37998756     0.61000
H2056       H  0.33926471  0.33832682  0.40980386     0.08400
O2057       O  0.38398918  0.45956747  0.38074084    -0.40500
O2058       O  0.39844178  0.45408889  0.42182359    -0.39700
O2059       O  0.29579075  0.36120679  0.44423358    -0.39700
O2060       O  0.27207129  0.38265436  0.41412386    -0.37400
O2061       O  0.36447172  0.28713455  0.38232401    -0.38300
O2062       O  0.32181372  0.27973504  0.38990275    -0.34400
O2063       O  0.33930737  0.41208609  0.32967770    -0.35800
O2064       O  0.29776981  0.41091622  0.34394149    -0.40100
C2065       C  0.15728448  0.21868544  0.38959645    -0.13800
C2066       C  0.17963682  0.23118052  0.40129955     0.16600
C2067       C  0.17770079  0.24119385  0.42773832     0.02900
C2068       C  0.15319420  0.23903553  0.44178860    -0.12300
C2069       C  0.13042067  0.22685737  0.42989531    -0.03400
C2070       C  0.13294008  0.21632319  0.40350165     0.02100
C2071       C  0.20417354  0.23403423  0.38462020     0.08900
N2072       N  0.20050010  0.25311181  0.44067555     0.65300
H2073       H  0.15198721  0.24717820  0.46199718     0.18200
N2074       N  0.11120616  0.20271085  0.39048871     0.75800
H2075       H  0.15870562  0.21081314  0.36926834     0.09700
C2076       C  0.21883012  0.21098204  0.37704241     0.03400
C2077       C  0.23759582  0.21258436  0.35609295    -0.05300
C2078       C  0.24286180  0.23708233  0.34321992    -0.23700
C2079       C  0.22927577  0.26051620  0.35158324     0.12700
C2080       C  0.20968116  0.25878088  0.37195776    -0.12800
N2081       N  0.21439733  0.18573986  0.39022112     0.64300
H2082       H  0.24777412  0.19457998  0.34942352     0.12200
N2083       N  0.23484889  0.28594133  0.33916112     0.61000
H2084       H  0.19822662  0.27654803  0.37738679     0.08400
O2085       O  0.10995543  0.17733728  0.39168194    -0.40500
O2086       O  0.09748305  0.21506717  0.37303413    -0.39700
O2087       O  0.20000995  0.27770204  0.44713610    -0.39700
O2088       O  0.21918676  0.23824940  0.44935410    -0.37400
O2089       O  0.21702417  0.29742097  0.32519107    -0.38300
O2090       O  0.25793323  0.29643103  0.34120415    -0.34400
O2091       O  0.20391032  0.16637586  0.37751652    -0.35800
O2092       O  0.22371284  0.18189787  0.41354959    -0.40100
C2093       C  0.00546497  0.20868478  0.39010033    -0.13800
C2094       C  0.98800046  0.23071939  0.39234545     0.16600
C2095       C  0.99187376  0.24964673  0.41307180     0.02900
C2096       C  0.01341094  0.24652006  0.43099929    -0.12300
C2097       C  0.03152629  0.22499777  0.42819988    -0.03400
C2098       C  0.02707741  0.20548493  0.40795516     0.02100
C2099       C  0.96544993  0.23319354  0.37314395     0.08900
N2100       N  0.97513707  0.27299687  0.41500978     0.65300
H2101       H  0.01692873  0.26184908  0.44614947     0.18200
N2102       N  0.04368424  0.18193618  0.40591031     0.75800
H2103       H  0.00198861  0.19371721  0.37458344     0.09700
C2104       C  0.97030294  0.23917573  0.34592641     0.03400
C2105       C  0.94893816  0.23964241  0.32767744    -0.05300
C2106       C  0.92239520  0.23394185  0.33592379    -0.23700
C2107       C  0.91765835  0.22747238  0.36339227     0.12700
C2108       C  0.93915326  0.22760217  0.38172456    -0.12800
N2109       N  0.99687126  0.24527182  0.33663706     0.64300
H2110       H  0.95327478  0.24486007  0.30692649     0.12200
N2111       N  0.89163354  0.21931081  0.37280629     0.61000
H2112       H  0.93548951  0.22227813  0.40259055     0.08400
O2113       O  0.05032290  0.17297299  0.38305595    -0.40500
O2114       O  0.04818041  0.16780634  0.42657495    -0.39700
O2115       O  0.96129018  0.27700805  0.43594675    -0.39700
O2116       O  0.97652578  0.29107644  0.39716393    -0.37400
O2117       O  0.88236552  0.19661385  0.36599255    -0.38300
O2118       O  0.88044783  0.23215209  0.39167829    -0.34400
O2119       O  0.00875644  0.22923252  0.32090807    -0.35800
O2120       O  0.00688686  0.26821664  0.34114387    -0.40100
C2121       C  0.19977580  0.12721427  0.26020511    -0.13800
C2122       C  0.19996762  0.11003498  0.23778904     0.16600
C2123       C  0.22042056  0.11260045  0.21828321     0.02900
C2124       C  0.24063979  0.13197452  0.22171242    -0.12300
C2125       C  0.24028534  0.14931191  0.24403721    -0.03400
C2126       C  0.21981235  0.14677477  0.26350324     0.02100
C2127       C  0.17751136  0.09092416  0.23427211     0.08900
N2128       N  0.22045052  0.09617866  0.19463209     0.65300
H2129       H  0.25619139  0.13405457  0.20650012     0.18200
N2130       N  0.21951721  0.16357958  0.28692181     0.75800
H2131       H  0.18391228  0.12546625  0.27512167     0.09700
C2132       C  0.17563243  0.06710473  0.24960957     0.03400
C2133       C  0.15272485  0.05077804  0.24736513    -0.05300
C2134       C  0.13121661  0.05828963  0.23061123    -0.23700
C2135       C  0.13373245  0.08160624  0.21444295     0.12700
C2136       C  0.15681759  0.09764851  0.21640122    -0.12800
N2137       N  0.19628285  0.05982174  0.26829458     0.64300
H2138       H  0.15107354  0.03307154  0.26006235     0.12200
N2139       N  0.11304216  0.08927415  0.19596744     0.61000
H2140       H  0.15833471  0.11583490  0.20437690     0.08400
O2141       O  0.23885207  0.16285641  0.30339298    -0.40500
O2142       O  0.20021431  0.17961815  0.29086742    -0.39700
O2143       O  0.20913882  0.10459438  0.17349221    -0.39700
O2144       O  0.23552904  0.07576352  0.19347561    -0.37400
O2145       O  0.11024412  0.07644049  0.17420769    -0.38300
O2146       O  0.10067719  0.11123636  0.19926036    -0.34400
O2147       O  0.19729110  0.07129250  0.29095562    -0.35800
O2148       O  0.20977470  0.03863484  0.26443513    -0.40100
C2149       C  0.98797172  0.07105140  0.25376582    -0.13800
C2150       C  0.98658012  0.09379841  0.23708552     0.16600
C2151       C  0.00815545  0.09971589  0.21967459     0.02900
C2152       C  0.03093832  0.08313632  0.21946696    -0.12300
C2153       C  0.03272163  0.06052453  0.23645690    -0.03400
C2154       C  0.01083291  0.05445363  0.25368703     0.02100
C2155       C  0.96373928  0.11264643  0.23994756     0.08900
N2156       N  0.00756423  0.12305002  0.20278272     0.65300
H2157       H  0.04743345  0.08813537  0.20605194     0.18200
N2158       N  0.01236608  0.03291036  0.27274275     0.75800
H2159       H  0.97165770  0.06677218  0.26765431     0.09700
C2160       C  0.94071962  0.11057973  0.22357246     0.03400
C2161       C  0.91976150  0.12925434  0.22642567    -0.05300
C2162       C  0.92152516  0.15021721  0.24533276    -0.23700
C2163       C  0.94438255  0.15189343  0.26214134     0.12700
C2164       C  0.96527761  0.13316882  0.25928705    -0.12800
N2165       N  0.93854268  0.08980777  0.20378242     0.64300
H2166       H  0.90236722  0.12779444  0.21332757     0.12200
N2167       N  0.94622092  0.17194811  0.28274217     0.61000
H2168       H  0.98281094  0.13463894  0.27219689     0.08400
O2169       O  0.02453337  0.03648590  0.29476389    -0.40500
O2170       O  0.99813988  0.01207289  0.26950442    -0.39700
O2171       O  0.02201141  0.14317809  0.20852794    -0.39700
O2172       O  0.99626374  0.12185723  0.18006587    -0.37400
O2173       O  0.93613675  0.16740529  0.30564755    -0.38300
O2174       O  0.96131398  0.19216012  0.27942299    -0.34400
O2175       O  0.92690634  0.06797635  0.20971479    -0.35800
O2176       O  0.94379887  0.09501645  0.17946014    -0.40100
C2177       C  0.00475884  0.72363525  0.38727685    -0.13800
C2178       C  0.98374035  0.74054906  0.39544846     0.16600
C2179       C  0.98569161  0.75434689  0.42014920     0.02900
C2180       C  0.00893846  0.75157646  0.43598512    -0.12300
C2181       C  0.03035927  0.73520323  0.42740519    -0.03400
C2182       C  0.02788043  0.72076181  0.40302301     0.02100
C2183       C  0.96028360  0.74368582  0.37741379     0.08900
N2184       N  0.96487948  0.77230488  0.42860783     0.65300
H2185       H  0.01068184  0.76305795  0.45446885     0.18200
N2186       N  0.04850057  0.70268508  0.39424879     0.75800
H2187       H  0.00318566  0.71261883  0.36848636     0.09700
C2188       C  0.96300937  0.75695013  0.35249817     0.03400
C2189       C  0.94184582  0.75647676  0.33397314    -0.05300
C2190       C  0.91773537  0.74280575  0.33974603    -0.23700
C2191       C  0.91489314  0.72970228  0.36491328     0.12700
C2192       C  0.93607224  0.73050927  0.38360260    -0.12800
N2193       N  0.98734654  0.77076883  0.34567213     0.64300
H2194       H  0.94433308  0.76686382  0.31491339     0.12200
N2195       N  0.89174702  0.71353920  0.37081174     0.61000
H2196       H  0.93419344  0.71954788  0.40240299     0.08400
O2197       O  0.06306340  0.70877642  0.37430147    -0.40500
O2198       O  0.04962378  0.67920952  0.40397243    -0.39700
O2199       O  0.94506965  0.76340489  0.44184583    -0.39700
O2200       O  0.96780087  0.79738937  0.42554785    -0.37400
O2201       O  0.87761310  0.71861506  0.39132447    -0.38300
O2202       O  0.88819291  0.69168798  0.35830810    -0.34400
O2203       O  0.00333252  0.76056332  0.32875137    -0.35800
O2204       O  0.99071504  0.79482667  0.35319320    -0.40100
C2205       C  0.19450196  0.72580218  0.34899103    -0.13800
C2206       C  0.19723142  0.74152286  0.37229108     0.16600
C2207       C  0.22207418  0.75408049  0.37781228     0.02900
C2208       C  0.24353103  0.75124220  0.35973420    -0.12300
C2209       C  0.24051466  0.73623046  0.33595437    -0.03400
C2210       C  0.21581837  0.72300934  0.33085558     0.02100
C2211       C  0.17408525  0.74353754  0.39093682     0.08900
N2212       N  0.22534718  0.77086913  0.40095622     0.65300
H2213       H  0.26222521  0.76180743  0.36373897     0.18200
N2214       N  0.21231935  0.70606282  0.30778247     0.75800
H2215       H  0.17577521  0.71526892  0.34506566     0.09700
C2216       C  0.14881362  0.75234578  0.38164932     0.03400
C2217       C  0.12639138  0.75065074  0.39848129    -0.05300
C2218       C  0.12852397  0.74053609  0.42484276    -0.23700
C2219       C  0.15408511  0.73254091  0.43448437     0.12700
C2220       C  0.17654906  0.73397277  0.41742489    -0.12800
N2221       N  0.14563374  0.76310409  0.35511007     0.64300
H2222       H  0.10715288  0.75744503  0.39076379     0.12200
N2223       N  0.15736928  0.72148539  0.46086537     0.61000
H2224       H  0.19580312  0.72662668  0.42457174     0.08400
O2225       O  0.19483159  0.71188014  0.29029567    -0.40500
O2226       O  0.22422341  0.68363035  0.30662808    -0.39700
O2227       O  0.24019625  0.76321340  0.42008978    -0.39700
O2228       O  0.21707696  0.79489863  0.40033437    -0.37400
O2229       O  0.15672146  0.69626835  0.46413464    -0.38300
O2230       O  0.16529534  0.73640804  0.47985637    -0.34400
O2231       O  0.13148080  0.75064453  0.33806090    -0.35800
O2232       O  0.15326322  0.78686432  0.35014651    -0.40100
C2233       C  0.93578709  0.87650196  0.25031453    -0.13800
C2234       C  0.96233043  0.86707993  0.24782305     0.16600
C2235       C  0.96673109  0.83921794  0.24450709     0.02900
C2236       C  0.94499080  0.82138851  0.24456084    -0.12300
C2237       C  0.91830416  0.83051830  0.24725025    -0.03400
C2238       C  0.91381941  0.85863501  0.24978800     0.02100
C2239       C  0.98542173  0.88597444  0.25084299     0.08900
N2240       N  0.99325623  0.82866277  0.24069980     0.65300
H2241       H  0.94926591  0.80011655  0.24225217     0.18200
N2242       N  0.88728951  0.86944807  0.25248982     0.75800
H2243       H  0.93208126  0.89780780  0.25330725     0.09700
C2244       C  0.98784759  0.90972074  0.23532351     0.03400
C2245       C  0.01052269  0.92635193  0.23844203    -0.05300
C2246       C  0.03123780  0.91939309  0.25639241    -0.23700
C2247       C  0.02817385  0.89631268  0.27272180     0.12700
C2248       C  0.00533257  0.88007712  0.27000091    -0.12800
N2249       N  0.96834723  0.91635787  0.21521691     0.64300
H2250       H  0.01268318  0.94387968  0.22557832     0.12200
N2251       N  0.04793848  0.88927420  0.29243703     0.61000
H2252       H  0.00316841  0.86263171  0.28296682     0.08400
O2253       O  0.87472568  0.87714015  0.23179120    -0.40500
O2254       O  0.87847524  0.87562281  0.27552224    -0.39700
O2255       O  0.00312540  0.81282657  0.25796317    -0.39700
O2256       O  0.00485637  0.83157529  0.21825966    -0.37400
O2257       O  0.04996025  0.90297920  0.31374811    -0.38300
O2258       O  0.06101858  0.86760391  0.29011584    -0.34400
O2259       O  0.95519990  0.93803429  0.21701978    -0.35800
O2260       O  0.96696928  0.90256405  0.19390895    -0.40100
C2261       C  0.19991529  0.84415760  0.27341858    -0.13800
C2262       C  0.20019582  0.86612569  0.25553090     0.16600
C2263       C  0.22295501  0.87017976  0.23896142     0.02900
C2264       C  0.24427812  0.85166279  0.23963879    -0.12300
C2265       C  0.24308302  0.82877234  0.25623514    -0.03400
C2266       C  0.22100809  0.82548312  0.27381962     0.02100
C2267       C  0.17619776  0.88400392  0.25416244     0.08900
N2268       N  0.22395465  0.89197772  0.22014510     0.65300
H2269       H  0.26116996  0.85440958  0.22605579     0.18200
N2270       N  0.22012051  0.80370416  0.29269920     0.75800
H2271       H  0.18304825  0.84135977  0.28701329     0.09700
C2272       C  0.15046626  0.87300260  0.24951092     0.03400
C2273       C  0.12774562  0.88951537  0.25039236    -0.05300
C2274       C  0.12981106  0.91733494  0.25550924    -0.23700
C2275       C  0.15570008  0.92850616  0.25998148     0.12700
C2276       C  0.17858741  0.91179528  0.25913458    -0.12800
N2277       N  0.14715174  0.84507637  0.24313028     0.64300
H2278       H  0.10832682  0.88038975  0.24636992     0.12200
N2279       N  0.15904196  0.95633216  0.26677723     0.61000
H2280       H  0.19821449  0.92038775  0.26332629     0.08400
O2281       O  0.23249833  0.80574819  0.31479729    -0.40500
O2282       O  0.20374261  0.78454939  0.28924037    -0.39700
O2283       O  0.24212526  0.90966746  0.22216558    -0.39700
O2284       O  0.20935000  0.89134165  0.19936651    -0.37400
O2285       O  0.15107630  0.96481416  0.28938549    -0.38300
O2286       O  0.17335228  0.97139080  0.25207456    -0.34400
O2287       O  0.13387579  0.82994115  0.25869737    -0.35800
O2288       O  0.15484232  0.83626686  0.22055778    -0.40100
C2289       C  0.20063070  0.71843103  0.63927963    -0.13800
C2290       C  0.20318437  0.73508555  0.61662143     0.16600
C2291       C  0.22643896  0.75106646  0.61350473     0.02900
C2292       C  0.24630072  0.75090169  0.63357380    -0.12300
C2293       C  0.24324468  0.73498537  0.65683080    -0.03400
C2294       C  0.22060707  0.71789764  0.65913721     0.02100
C2295       C  0.17991480  0.73753312  0.59827714     0.08900
N2296       N  0.22954935  0.76840377  0.59071573     0.65300
H2297       H  0.26370353  0.76394092  0.63139992     0.18200
N2298       N  0.21805996  0.69937457  0.68113069     0.75800
H2299       H  0.18291425  0.70584131  0.64156454     0.09700
C2300       C  0.17809691  0.72294706  0.57400431     0.03400
C2301       C  0.15437825  0.72420885  0.55864528    -0.05300
C2302       C  0.13210431  0.73921387  0.56763023    -0.23700
C2303       C  0.13441846  0.75436312  0.59159119     0.12700
C2304       C  0.15821574  0.75346771  0.60656314    -0.12800
N2305       N  0.19944430  0.70556507  0.56561596     0.64300
H2306       H  0.15286098  0.71229880  0.54041140     0.12200
N2307       N  0.11288635  0.77104788  0.60084710     0.61000
H2308       H  0.15958502  0.76487622  0.62513665     0.08400
O2309       O  0.19745533  0.69990904  0.69601877    -0.40500
O2310       O  0.23585229  0.68162610  0.68494773    -0.39700
O2311       O  0.22157243  0.79250260  0.59206243    -0.39700
O2312       O  0.24441363  0.76121949  0.57138731    -0.37400
O2313       O  0.09879559  0.76353290  0.62064710    -0.38300
O2314       O  0.11146191  0.79515605  0.59287491    -0.34400
O2315       O  0.20152516  0.68240021  0.57591269    -0.35800
O2316       O  0.21307757  0.71138157  0.54494901    -0.40100
C2317       C  0.97053435  0.74523408  0.64592580    -0.13800
C2318       C  0.96417046  0.73610908  0.62007324     0.16600
C2319       C  0.93732615  0.72947531  0.61384603     0.02900
C2320       C  0.91742702  0.73205160  0.63370144    -0.12300
C2321       C  0.92390480  0.74004194  0.66017002    -0.03400
C2322       C  0.95096301  0.74695501  0.66604143     0.02100
C2323       C  0.98644844  0.73319802  0.60058582     0.08900
N2324       N  0.93024947  0.71847228  0.58816659     0.65300
H2325       H  0.89694592  0.72660188  0.62859560     0.18200
N2326       N  0.95915809  0.75628328  0.69199976     0.75800
H2327       H  0.99115539  0.75063611  0.65070588     0.09700
C2328       C  0.98833024  0.74933111  0.57727039     0.03400
C2329       C  0.01158790  0.74806935  0.56128835    -0.05300
C2330       C  0.03342071  0.73176934  0.56885107    -0.23700
C2331       C  0.03108558  0.71508901  0.59169794     0.12700
C2332       C  0.00763652  0.71577949  0.60719309    -0.12800
N2333       N  0.96799853  0.76872841  0.57094581     0.64300
H2334       H  0.01330416  0.76119171  0.54390572     0.12200
N2335       N  0.05229763  0.69722765  0.59933006     0.61000
H2336       H  0.00624287  0.70319611  0.62500423     0.08400
O2337       O  0.96930104  0.77952810  0.69391745    -0.40500
O2338       O  0.96384895  0.73926007  0.71030077    -0.39700
O2339       O  0.93858947  0.69533095  0.58173652    -0.39700
O2340       O  0.91178729  0.72928731  0.57446812    -0.37400
O2341       O  0.06682184  0.70282659  0.61941024    -0.38300
O2342       O  0.05334326  0.67393743  0.58918701    -0.34400
O2343       O  0.96536735  0.78938175  0.58554544    -0.35800
O2344       O  0.95612917  0.76770928  0.54850360    -0.40100
C2345       C  0.17424736  0.90744923  0.75004726    -0.13800
C2346       C  0.17150317  0.88117004  0.73999645     0.16600
C2347       C  0.14649282  0.87271965  0.72974407     0.02900
C2348       C  0.12451197  0.89023311  0.73048771    -0.12300
C2349       C  0.12689604  0.91636400  0.74125174    -0.03400
C2350       C  0.15219727  0.92509247  0.75091316     0.02100
C2351       C  0.19417587  0.86204813  0.74260138     0.08900
N2352       N  0.14319139  0.84640277  0.71845684     0.65300
H2353       H  0.10536939  0.88326087  0.72263499     0.18200
N2354       N  0.15549666  0.95089630  0.76338280     0.75800
H2355       H  0.19328208  0.91379596  0.75862841     0.09700
C2356       C  0.21919105  0.86706624  0.73021386     0.03400
C2357       C  0.24033346  0.84878107  0.73350452    -0.05300
C2358       C  0.23695801  0.82543744  0.74912811    -0.23700
C2359       C  0.21219111  0.82085888  0.76240738     0.12700
C2360       C  0.19095483  0.83902231  0.75873400    -0.12800
N2361       N  0.22301204  0.89007257  0.71332330     0.64300
H2362       H  0.25917978  0.85241266  0.72306722     0.12200
N2363       N  0.20873637  0.79853196  0.78047431     0.61000
H2364       H  0.17205691  0.83557872  0.76913178     0.08400
O2365       O  0.17527111  0.96556655  0.75696607    -0.40500
O2366       O  0.14163640  0.95690641  0.78384462    -0.39700
O2367       O  0.12930228  0.82895329  0.73071710    -0.39700
O2368       O  0.15113561  0.84176841  0.69475625    -0.37400
O2369       O  0.22511241  0.79497288  0.79958816    -0.38300
O2370       O  0.18831129  0.78348592  0.77855821    -0.34400
O2371       O  0.23531929  0.91043910  0.72229116    -0.35800
O2372       O  0.21802273  0.88837775  0.68846653    -0.40100
C2373       C  0.93649651  0.87347937  0.76430052    -0.13800
C2374       C  0.96122567  0.86757017  0.75203798     0.16600
C2375       C  0.96552327  0.84193605  0.74065339     0.02900
C2376       C  0.94529066  0.82253627  0.74211775    -0.12300
C2377       C  0.92031008  0.82837421  0.75384208    -0.03400
C2378       C  0.91600312  0.85407811  0.76533923     0.02100
C2379       C  0.98370864  0.88682080  0.75404438     0.08900
N2380       N  0.99022218  0.83553237  0.72715315     0.65300
H2381       H  0.94885789  0.80295843  0.73331615     0.18200
N2382       N  0.89178525  0.86011809  0.77971299     0.75800
H2383       H  0.93347852  0.89283701  0.77394177     0.09700
C2384       C  0.98309164  0.91213794  0.74127857     0.03400
C2385       C  0.00617381  0.92839544  0.74136755    -0.05300
C2386       C  0.02985456  0.91959551  0.75408023    -0.23700
C2387       C  0.02965278  0.89502764  0.76847250     0.12700
C2388       C  0.00672222  0.87886740  0.76818282    -0.12800
N2389       N  0.95980413  0.92076036  0.72678642     0.64300
H2390       H  0.00600176  0.94720038  0.73025354     0.12200
N2391       N  0.05253757  0.88627523  0.78360122     0.61000
H2392       H  0.00697563  0.85973730  0.77875354     0.08400
O2393       O  0.88937749  0.85282538  0.80395697    -0.40500
O2394       O  0.87481996  0.87615392  0.76970105    -0.39700
O2395       O  0.00307468  0.81451246  0.73340997    -0.39700
O2396       O  0.99780330  0.84941267  0.70721739    -0.37400
O2397       O  0.05807020  0.89750267  0.80572086    -0.38300
O2398       O  0.06516841  0.86535899  0.77658824    -0.34400
O2399       O  0.94417340  0.93794274  0.73708475    -0.35800
O2400       O  0.95672486  0.91385229  0.70252468    -0.40100
C2401       C  0.15850991  0.26468792  0.60264245    -0.13800
C2402       C  0.17451330  0.24145941  0.60178395     0.16600
C2403       C  0.16712605  0.22003211  0.58467598     0.02900
C2404       C  0.14401334  0.22223604  0.56867764    -0.12300
C2405       C  0.12790759  0.24543047  0.56969943    -0.03400
C2406       C  0.13539156  0.26691534  0.58669858     0.02100
C2407       C  0.19763624  0.23934945  0.62040654     0.08900
N2408       N  0.18275725  0.19588204  0.58356505     0.65300
H2409       H  0.13825990  0.20550064  0.55587467     0.18200
N2410       N  0.12017797  0.29136555  0.58744992     0.75800
H2411       H  0.16391392  0.28112388  0.61596405     0.09700
C2412       C  0.21937943  0.25760152  0.61903734     0.03400
C2413       C  0.23983036  0.25647187  0.63834701    -0.05300
C2414       C  0.23871696  0.23771169  0.65945130    -0.23700
C2415       C  0.21710627  0.21927454  0.66071839     0.12700
C2416       C  0.19679896  0.22020845  0.64120157    -0.12800
N2417       N  0.22080017  0.27754483  0.59830320     0.64300
H2418       H  0.25631825  0.27077840  0.63723462     0.12200
N2419       N  0.21585434  0.19915834  0.68132486     0.61000
H2420       H  0.18004314  0.20624709  0.64255007     0.08400
O2421       O  0.11235749  0.30066433  0.60978052    -0.40500
O2422       O  0.11913539  0.30610661  0.56675311    -0.39700
O2423       O  0.17329490  0.17421388  0.59298323    -0.39700
O2424       O  0.20426980  0.19539468  0.57002639    -0.37400
O2425       O  0.19817587  0.20073583  0.69953264    -0.38300
O2426       O  0.22963721  0.17792826  0.67905110    -0.34400
O2427       O  0.21524753  0.30175203  0.60375319    -0.35800
O2428       O  0.23238818  0.27202484  0.57636491    -0.40100
C2429       C  0.93273702  0.25494566  0.61231802    -0.13800
C2430       C  0.95762410  0.24300447  0.61835872     0.16600
C2431       C  0.96107560  0.23031231  0.64351432     0.02900
C2432       C  0.94049638  0.23105233  0.66266557    -0.12300
C2433       C  0.91579265  0.24358676  0.65713673    -0.03400
C2434       C  0.91170858  0.25505588  0.63131738     0.02100
C2435       C  0.98105443  0.24654169  0.60006537     0.08900
N2436       N  0.98543885  0.21632387  0.64977900     0.65300
H2437       H  0.94378833  0.22128572  0.68191883     0.18200
N2438       N  0.88692980  0.26800060  0.62448911     0.75800
H2439       H  0.92994656  0.26511008  0.59320945     0.09700
C2440       C  0.98185550  0.23560978  0.57390077     0.03400
C2441       C  0.00571530  0.23718702  0.55869907    -0.05300
C2442       C  0.02898995  0.24969486  0.56912580    -0.23700
C2443       C  0.02742137  0.26194267  0.59482686     0.12700
C2444       C  0.00369958  0.26019759  0.60989689    -0.12800
N2445       N  0.95916354  0.22155515  0.56313275     0.64300
H2446       H  0.00626154  0.22765816  0.53907541     0.12200
N2447       N  0.04961592  0.27646072  0.60599158     0.61000
H2448       H  0.00306127  0.26933170  0.62972508     0.08400
O2449       O  0.87066160  0.25644616  0.60874970    -0.40500
O2450       O  0.88369718  0.29261311  0.62994409    -0.39700
O2451       O  0.00000390  0.22424516  0.66903604    -0.39700
O2452       O  0.99028837  0.19395126  0.63872034    -0.37400
O2453       O  0.05307576  0.30083848  0.59960005    -0.38300
O2454       O  0.06202101  0.26689124  0.62599907    -0.34400
O2455       O  0.94207438  0.23414474  0.54918178    -0.35800
O2456       O  0.95865539  0.19613344  0.56364720    -0.40100
C2457       C  0.17261700  0.07125246  0.74950263    -0.13800
C2458       C  0.17433515  0.09298072  0.73159852     0.16600
C2459       C  0.15330809  0.09784066  0.71324743     0.02900
C2460       C  0.13028782  0.08159839  0.71399183    -0.12300
C2461       C  0.12813144  0.06021197  0.73240463    -0.03400
C2462       C  0.14958544  0.05491731  0.75033564     0.02100
C2463       C  0.19647888  0.11245063  0.73486005     0.08900
N2464       N  0.15509545  0.11922156  0.69390876     0.65300
H2465       H  0.11401668  0.08561855  0.70001556     0.18200
N2466       N  0.14746152  0.03469454  0.77091230     0.75800
H2467       H  0.18858704  0.06804302  0.76402081     0.09700
C2468       C  0.19249670  0.13630369  0.74959401     0.03400
C2469       C  0.21358818  0.15475149  0.75232929    -0.05300
C2470       C  0.23917406  0.14938931  0.74140983    -0.23700
C2471       C  0.24326628  0.12486529  0.72739015     0.12700
C2472       C  0.22184912  0.10677767  0.72405225    -0.12800
N2473       N  0.16745757  0.14138031  0.76289441     0.64300
H2474       H  0.20995562  0.17322427  0.76332186     0.12200
N2475       N  0.26878153  0.11826538  0.71584023     0.61000
H2476       H  0.22502131  0.08821506  0.71299792     0.08400
O2477       O  0.12720395  0.03425053  0.78630102    -0.40500
O2478       O  0.16764107  0.02038168  0.77667705    -0.39700
O2479       O  0.17416531  0.11954232  0.67707849    -0.39700
O2480       O  0.13601235  0.13582242  0.69145648    -0.37400
O2481       O  0.28505957  0.10380347  0.72892859    -0.38300
O2482       O  0.27295898  0.12264996  0.69114834    -0.34400
O2483       O  0.16387776  0.13330693  0.78674287    -0.35800
O2484       O  0.14900041  0.15410457  0.75096877    -0.40100
C2485       C  0.98451075  0.07032441  0.74897300    -0.13800
C2486       C  0.98472556  0.09493138  0.73499852     0.16600
C2487       C  0.00733824  0.10187074  0.71934748     0.02900
C2488       C  0.02964221  0.08477713  0.71864612    -0.12300
C2489       C  0.03004290  0.06062924  0.73344824    -0.03400
C2490       C  0.00701213  0.05322535  0.74849104     0.02100
C2491       C  0.96258892  0.11448342  0.73906971     0.08900
N2492       N  0.00804400  0.12647516  0.70435589     0.65300
H2493       H  0.04695680  0.09068379  0.70669717     0.18200
N2494       N  0.00707422  0.02984430  0.76533220     0.75800
H2495       H  0.96741952  0.06511374  0.76154001     0.09700
C2496       C  0.93602416  0.10873711  0.73110616     0.03400
C2497       C  0.91580030  0.12802086  0.73486016    -0.05300
C2498       C  0.92154210  0.15315048  0.74670146    -0.23700
C2499       C  0.94803529  0.15834663  0.75575780     0.12700
C2500       C  0.96825244  0.13914712  0.75166850    -0.12800
N2501       N  0.92950875  0.08379072  0.71830533     0.64300
H2502       H  0.89566197  0.12354235  0.72774017     0.12200
N2503       N  0.95451615  0.18246821  0.77013145     0.61000
H2504       H  0.98847832  0.14335357  0.75872133     0.08400
O2505       O  0.99190182  0.01017707  0.75986134    -0.40500
O2506       O  0.01939714  0.03037976  0.78755015    -0.39700
O2507       O  0.02322870  0.14546070  0.71183411    -0.39700
O2508       O  0.99658776  0.12775952  0.68171773    -0.37400
O2509       O  0.96853021  0.20052743  0.75894755    -0.38300
O2510       O  0.94983651  0.18385152  0.79508643    -0.34400
O2511       O  0.91706223  0.06579032  0.73128894    -0.35800
O2512       O  0.93246408  0.08139880  0.69317452    -0.40100
C2513       C  0.49524391  0.08466849  0.24978563    -0.13800
C2514       C  0.47228893  0.08418763  0.23352870     0.16600
C2515       C  0.46740898  0.06193357  0.21669423     0.02900
C2516       C  0.48464746  0.03973414  0.21778501    -0.12300
C2517       C  0.50716670  0.03953956  0.23498651    -0.03400
C2518       C  0.51274581  0.06263875  0.25068470     0.02100
C2519       C  0.45288274  0.10642617  0.23585451     0.08900
N2520       N  0.44554326  0.06197765  0.19792081     0.65300
H2521       H  0.48052303  0.02264131  0.20485446     0.18200
N2522       N  0.53528051  0.06381722  0.26851640     0.75800
H2523       H  0.49899704  0.10187076  0.26271944     0.09700
C2524       C  0.42711721  0.10217176  0.24694980     0.03400
C2525       C  0.40939856  0.12380317  0.24926853    -0.05300
C2526       C  0.41698435  0.14991873  0.24121090    -0.23700
C2527       C  0.44299281  0.15412850  0.23043952     0.12700
C2528       C  0.46068373  0.13237318  0.22790345    -0.12800
N2529       N  0.41915356  0.07636989  0.25720781     0.64300
H2530       H  0.38977225  0.12017944  0.25815359     0.12200
N2531       N  0.45150823  0.18007500  0.22125605     0.61000
H2532       H  0.48056048  0.13567404  0.21946508     0.08400
O2533       O  0.53574063  0.04899531  0.28917755    -0.40500
O2534       O  0.55136974  0.08344677  0.26687364    -0.39700
O2535       O  0.44621964  0.07774591  0.17797106    -0.39700
O2536       O  0.42816016  0.04340737  0.19862381    -0.37400
O2537       O  0.46852509  0.19328427  0.23474976    -0.38300
O2538       O  0.44532908  0.18782160  0.19785289    -0.34400
O2539       O  0.43086735  0.06685413  0.27765349    -0.35800
O2540       O  0.39744851  0.06574718  0.24928372    -0.40100
C2541       C  0.47023707  0.91644883  0.21691580    -0.13800
C2542       C  0.47656222  0.89538140  0.23461672     0.16600
C2543       C  0.50070526  0.89661422  0.24954009     0.02900
C2544       C  0.51732838  0.91935056  0.24743486    -0.12300
C2545       C  0.50983775  0.94138281  0.23135715    -0.03400
C2546       C  0.48637242  0.93947009  0.21534868     0.02100
C2547       C  0.45744241  0.87259817  0.23751551     0.08900
N2548       N  0.50761845  0.87590414  0.26836156     0.65300
H2549       H  0.53511645  0.92056987  0.26001020     0.18200
N2550       N  0.47851206  0.96075150  0.19753328     0.75800
H2551       H  0.45240116  0.91516348  0.20442526     0.09700
C2552       C  0.43013070  0.87727745  0.24357751     0.03400
C2553       C  0.41247298  0.85562351  0.24624826    -0.05300
C2554       C  0.42119779  0.82886677  0.24294778    -0.23700
C2555       C  0.44850844  0.82420208  0.23615226     0.12700
C2556       C  0.46630688  0.84603103  0.23359831    -0.12800
N2557       N  0.42000933  0.90394904  0.24758466     0.64300
H2558       H  0.39167369  0.86003094  0.25107133     0.12200
N2559       N  0.45834853  0.79768642  0.23077796     0.61000
H2560       H  0.48709170  0.84223636  0.22812292     0.08400
O2561       O  0.49315387  0.96670997  0.17760184    -0.40500
O2562       O  0.45555959  0.97141515  0.19987670    -0.39700
O2563       O  0.53000199  0.86403420  0.26646511    -0.39700
O2564       O  0.49290613  0.87179473  0.28870590    -0.37400
O2565       O  0.45891138  0.78909801  0.20685735    -0.38300
O2566       O  0.47063000  0.78489862  0.24897465    -0.34400
O2567       O  0.40425552  0.91409744  0.23042179    -0.35800
O2568       O  0.42262025  0.91508480  0.27027423    -0.40100
C2569       C  0.29498205  0.06951842  0.10810507    -0.13800
C2570       C  0.31278566  0.08972783  0.09959850     0.16600
C2571       C  0.32736361  0.08618544  0.07553194     0.02900
C2572       C  0.32424298  0.06242334  0.06055548    -0.12300
C2573       C  0.30726377  0.04159636  0.06960648    -0.03400
C2574       C  0.29222896  0.04551075  0.09349338     0.02100
C2575       C  0.31748069  0.11317874  0.11742270     0.08900
N2576       N  0.34605543  0.10617503  0.06655920     0.65300
H2577       H  0.33613536  0.05975648  0.04243379     0.18200
N2578       N  0.27408730  0.02534662  0.10322698     0.75800
H2579       H  0.28370843  0.07209920  0.12663735     0.09700
C2580       C  0.29832203  0.13394434  0.11996842     0.03400
C2581       C  0.30212208  0.15433695  0.13913550    -0.05300
C2582       C  0.32455327  0.15403668  0.15630132    -0.23700
C2583       C  0.34392614  0.13346883  0.15348876     0.12700
C2584       C  0.34031048  0.11331339  0.13404099    -0.12800
N2585       N  0.27459236  0.13414091  0.10372453     0.64300
H2586       H  0.28700764  0.16994533  0.14126615     0.12200
N2587       N  0.36742562  0.13294466  0.17009876     0.61000
H2588       H  0.35505259  0.09731036  0.13232902     0.08400
O2589       O  0.25022355  0.02477341  0.09453540    -0.40500
O2590       O  0.28003123  0.01218110  0.12414160    -0.39700
O2591       O  0.37069417  0.10380639  0.07227667    -0.39700
O2592       O  0.33881395  0.12335303  0.04928718    -0.37400
O2593       O  0.36949003  0.11550148  0.18848559    -0.38300
O2594       O  0.38767801  0.14695648  0.16370285    -0.34400
O2595       O  0.25223449  0.12774102  0.11402346    -0.35800
O2596       O  0.27521376  0.14495358  0.08072390    -0.40100
C2597       C  0.32341835  0.89551504  0.07984152    -0.13800
C2598       C  0.31553508  0.89689530  0.10694527     0.16600
C2599       C  0.30428113  0.92098023  0.11682402     0.02900
C2600       C  0.30196530  0.94340792  0.09994011    -0.12300
C2601       C  0.31047742  0.94250369  0.07291648    -0.03400
C2602       C  0.32087887  0.91791235  0.06276176     0.02100
C2603       C  0.32086522  0.87384795  0.12525093     0.08900
N2604       N  0.29490684  0.92288004  0.14400143     0.65300
H2605       H  0.29342247  0.96168551  0.10819532     0.18200
N2606       N  0.33012431  0.91555760  0.03559621     0.75800
H2607       H  0.33236053  0.87717656  0.07207718     0.09700
C2608       C  0.31060297  0.84785696  0.12006689     0.03400
C2609       C  0.31573668  0.82685778  0.13821100    -0.05300
C2610       C  0.33061778  0.83132471  0.16183964    -0.23700
C2611       C  0.34185123  0.85708196  0.16638892     0.12700
C2612       C  0.33702782  0.87795815  0.14807138    -0.12800
N2613       N  0.29372129  0.84282285  0.09729700     0.64300
H2614       H  0.30679728  0.80730422  0.13451030     0.12200
N2615       N  0.35872943  0.86220727  0.18913361     0.61000
H2616       H  0.34595678  0.89756223  0.15171364     0.08400
O2617       O  0.31449554  0.90646649  0.01773780    -0.40500
O2618       O  0.35485742  0.91831177  0.03040091    -0.39700
O2619       O  0.30738453  0.93742606  0.16070310    -0.39700
O2620       O  0.27228083  0.91310162  0.15027431    -0.37400
O2621       O  0.38379497  0.85852287  0.18719288    -0.38300
O2622       O  0.34942635  0.87480495  0.20915629    -0.34400
O2623       O  0.30083570  0.82584939  0.07976124    -0.35800
O2624       O  0.27013101  0.85223798  0.09678803    -0.40100
C2625       C  0.69292346  0.06125948  0.72791762    -0.13800
C2626       C  0.68782889  0.07995385  0.74847044     0.16600
C2627       C  0.66442477  0.07703871  0.76434735     0.02900
C2628       C  0.64680865  0.05537771  0.75969874    -0.12300
C2629       C  0.65246549  0.03619570  0.73970646    -0.03400
C2630       C  0.67558074  0.03948326  0.72348990     0.02100
C2631       C  0.70643775  0.10315747  0.75176510     0.08900
N2632       N  0.65914644  0.09502094  0.78619885     0.65300
H2633       H  0.62943158  0.05276385  0.77267329     0.18200
N2634       N  0.68124321  0.02127447  0.70189768     0.75800
H2635       H  0.71028894  0.06383021  0.71492316     0.09700
C2636       C  0.73412226  0.09919879  0.75631701     0.03400
C2637       C  0.75171108  0.12121458  0.75622155    -0.05300
C2638       C  0.74248461  0.14758178  0.75118518    -0.23700
C2639       C  0.71453440  0.15151067  0.74667155     0.12700
C2640       C  0.69687634  0.12938030  0.74744972    -0.12800
N2641       N  0.74471434  0.07285189  0.76110201     0.64300
H2642       H  0.77284717  0.11743829  0.76006204     0.12200
N2643       N  0.70384695  0.17732815  0.73954395     0.61000
H2644       H  0.67571523  0.13250576  0.74314037     0.08400
O2645       O  0.70226689  0.00702566  0.70249963    -0.40500
O2646       O  0.66739061  0.02228513  0.68062381    -0.39700
O2647       O  0.63919998  0.11071258  0.78516038    -0.39700
O2648       O  0.67202457  0.09252025  0.80795824    -0.37400
O2649       O  0.70968599  0.18749279  0.71696159    -0.38300
O2650       O  0.68450856  0.18701744  0.75289261    -0.34400
O2651       O  0.75831968  0.06131716  0.74298874    -0.35800
O2652       O  0.74491806  0.06353408  0.78475192    -0.40100
C2653       C  0.66056717  0.89213027  0.72868381    -0.13800
C2654       C  0.68194480  0.89174227  0.74722551     0.16600
C2655       C  0.68619306  0.91424089  0.76399984     0.02900
C2656       C  0.67055134  0.93732656  0.76066299    -0.12300
C2657       C  0.64993873  0.93822548  0.74142313    -0.03400
C2658       C  0.64439822  0.91515966  0.72580014     0.02100
C2659       C  0.70216239  0.86982232  0.74618585     0.08900
N2660       N  0.70639383  0.91384329  0.78452519     0.65300
H2661       H  0.67441934  0.95466523  0.77337892     0.18200
N2662       N  0.62397127  0.91557607  0.70553035     0.75800
H2663       H  0.65740841  0.87513366  0.71535484     0.09700
C2664       C  0.69525691  0.84260782  0.75011789     0.03400
C2665       C  0.71521836  0.82272280  0.74867223    -0.05300
C2666       C  0.74232222  0.82944088  0.74358145    -0.23700
C2667       C  0.74894143  0.85684220  0.73875836     0.12700
C2668       C  0.72892806  0.87655889  0.74019981    -0.12800
N2669       N  0.66830251  0.83498721  0.75673452     0.64300
H2670       H  0.70947175  0.80197707  0.75223090     0.12200
N2671       N  0.77563558  0.86507265  0.73159939     0.61000
H2672       H  0.73429193  0.89737574  0.73622215     0.08400
O2673       O  0.60379661  0.90021997  0.70757898    -0.40500
O2674       O  0.62797927  0.92826434  0.68385194    -0.39700
O2675       O  0.72522266  0.93095221  0.78418022    -0.39700
O2676       O  0.70339633  0.89882313  0.80483425    -0.37400
O2677       O  0.78377340  0.86198446  0.70770563    -0.38300
O2678       O  0.78917018  0.87939733  0.74766430    -0.34400
O2679       O  0.65400308  0.82300246  0.73948032    -0.35800
O2680       O  0.66053189  0.83601484  0.78091888    -0.40100
C2681       C  0.82499038  0.06093279  0.88253534    -0.13800
C2682       C  0.83332372  0.08488807  0.89470763     0.16600
C2683       C  0.83926209  0.08515701  0.92238991     0.02900
C2684       C  0.83722565  0.06125247  0.93742721    -0.12300
C2685       C  0.82956506  0.03680692  0.92516288    -0.03400
C2686       C  0.82296751  0.03705892  0.89730071     0.02100
C2687       C  0.83503694  0.10930498  0.87780912     0.08900
N2688       N  0.84795979  0.10938864  0.93529950     0.65300
H2689       H  0.84241700  0.06175472  0.95860938     0.18200
N2690       N  0.81388633  0.01342993  0.88352834     0.75800
H2691       H  0.81998140  0.06078347  0.86127738     0.09700
C2692       C  0.85760021  0.11375709  0.86118522     0.03400
C2693       C  0.85701465  0.13427981  0.84185404    -0.05300
C2694       C  0.83419068  0.15058003  0.83904601    -0.23700
C2695       C  0.81189106  0.14673304  0.85618242     0.12700
C2696       C  0.81248439  0.12615857  0.87552940    -0.12800
N2697       N  0.88102123  0.09723184  0.86349373     0.64300
H2698       H  0.87432027  0.13739520  0.82888514     0.12200
N2699       N  0.78800256  0.16253341  0.85297473     0.61000
H2700       H  0.79486913  0.12248645  0.88791424     0.08400
O2701       O  0.82990683  0.00071234  0.86843435    -0.40500
O2702       O  0.78905075  0.00805581  0.88279069    -0.39700
O2703       O  0.83363258  0.11990287  0.95346927    -0.39700
O2704       O  0.87136529  0.11834946  0.93097971    -0.37400
O2705       O  0.78136275  0.17934151  0.87084331    -0.38300
O2706       O  0.77433859  0.16079153  0.83161083    -0.34400
O2707       O  0.88308717  0.07615016  0.84944538    -0.35800
O2708       O  0.90102928  0.10553526  0.87677608    -0.40100
C2709       C  0.81567852  0.84427903  0.88263037    -0.13800
C2710       C  0.81810036  0.87098890  0.87376475     0.16600
C2711       C  0.82180055  0.87624656  0.84611619     0.02900
C2712       C  0.82298514  0.85482097  0.82794569    -0.12300
C2713       C  0.82126666  0.82783831  0.83664370    -0.03400
C2714       C  0.81702929  0.82271777  0.86442361     0.02100
C2715       C  0.81830251  0.89311547  0.89369464     0.08900
N2716       N  0.82617817  0.90307793  0.83633404     0.65300
H2717       H  0.82642301  0.85953204  0.80690967     0.18200
N2718       N  0.81392732  0.79592583  0.87458922     0.75800
H2719       H  0.81273761  0.84015921  0.90387666     0.09700
C2720       C  0.79913133  0.91404258  0.89287505     0.03400
C2721       C  0.80261785  0.93673391  0.90919907    -0.05300
C2722       C  0.82439928  0.93852735  0.92707566    -0.23700
C2723       C  0.84277093  0.91702913  0.92887846     0.12700
C2724       C  0.83964516  0.89454683  0.91213645    -0.12800
N2725       N  0.77584995  0.91227763  0.87599057     0.64300
H2726       H  0.78812660  0.95301825  0.90805515     0.12200
N2727       N  0.86588372  0.91874186  0.94588909     0.61000
H2728       H  0.85462020  0.87867784  0.91266921     0.08400
O2729       O  0.79160989  0.78398226  0.87208532    -0.40500
O2730       O  0.83168932  0.78613128  0.88988245    -0.39700
O2731       O  0.84651062  0.91619855  0.84415711    -0.39700
O2732       O  0.81274364  0.91166383  0.81654009    -0.37400
O2733       O  0.86626754  0.90594184  0.96784922    -0.38300
O2734       O  0.88742016  0.92877794  0.93679992    -0.34400
O2735       O  0.75767910  0.89534302  0.88152834    -0.35800
O2736       O  0.77098292  0.93077322  0.85922838    -0.40100
C2737       C  0.33780963  0.37597505  0.07672961    -0.13800
C2738       C  0.32777934  0.38889085  0.09964800     0.16600
C2739       C  0.32105092  0.41636417  0.09837229     0.02900
C2740       C  0.32415132  0.43048384  0.07403384    -0.12300
C2741       C  0.33411428  0.41753410  0.05082106    -0.03400
C2742       C  0.34130778  0.38994970  0.05256081     0.02100
C2743       C  0.32486674  0.37279311  0.12449389     0.08900
N2744       N  0.31060815  0.42995799  0.12146801     0.65300
H2745       H  0.31834983  0.45151268  0.07323514     0.18200
N2746       N  0.35308857  0.37594306  0.03031683     0.75800
H2747       H  0.34336779  0.35486841  0.07775582     0.09700
C2748       C  0.30370865  0.35401877  0.12688397     0.03400
C2749       C  0.30483809  0.33403364  0.14671318    -0.05300
C2750       C  0.32651410  0.33291833  0.16471382    -0.23700
C2751       C  0.34703291  0.35251068  0.16328741     0.12700
C2752       C  0.34610133  0.37230517  0.14312959    -0.12800
N2753       N  0.28123680  0.35480640  0.10892544     0.64300
H2754       H  0.28871515  0.31933592  0.14811083     0.12200
N2755       N  0.36990190  0.35116127  0.18075890     0.61000
H2756       H  0.36276039  0.38628210  0.14098274     0.08400
O2757       O  0.34004159  0.35746594  0.01869388    -0.40500
O2758       O  0.37785163  0.37884644  0.02534309    -0.39700
O2759       O  0.32651121  0.44126070  0.13774697    -0.39700
O2760       O  0.28555411  0.43344849  0.12385382    -0.37400
O2761       O  0.37346038  0.36901694  0.19849473    -0.38300
O2762       O  0.38609551  0.33163663  0.17908049    -0.34400
O2763       O  0.27721480  0.33559958  0.09276478    -0.35800
O2764       O  0.26335111  0.37259165  0.11199606    -0.40100
C2765       C  0.34841158  0.33866149  0.88505459    -0.13800
C2766       C  0.33426975  0.36300429  0.88260089     0.16600
C2767       C  0.32135281  0.36900638  0.85804402     0.02900
C2768       C  0.32189146  0.35027343  0.83691307    -0.12300
C2769       C  0.33482894  0.32527266  0.83991342    -0.03400
C2770       C  0.34858833  0.31974486  0.86420500     0.02100
C2771       C  0.33301448  0.38144603  0.90614404     0.08900
N2772       N  0.30646537  0.39339972  0.85473006     0.65300
H2773       H  0.31119692  0.35489326  0.81846200     0.18200
N2774       N  0.36313872  0.29518052  0.86796476     0.75800
H2775       H  0.35926063  0.33418246  0.90344622     0.09700
C2776       C  0.32436463  0.37188787  0.93144774     0.03400
C2777       C  0.32541959  0.38871460  0.95389996    -0.05300
C2778       C  0.33504070  0.41531169  0.95205255    -0.23700
C2779       C  0.34329130  0.42513332  0.92656490     0.12700
C2780       C  0.34220828  0.40815940  0.90392742    -0.12800
N2781       N  0.31430657  0.34505153  0.93470185     0.64300
H2782       H  0.31836706  0.38075340  0.97296038     0.12200
N2783       N  0.35405527  0.45168983  0.92347671     0.61000
H2784       H  0.34951039  0.41558909  0.88473649     0.08400
O2785       O  0.35314550  0.27672757  0.88235763    -0.40500
O2786       O  0.38758627  0.29390708  0.86112259    -0.39700
O2787       O  0.31563980  0.41183439  0.83978165    -0.39700
O2788       O  0.28237024  0.39454755  0.86273793    -0.37400
O2789       O  0.37866274  0.45594064  0.92820551    -0.38300
O2790       O  0.34024653  0.46966360  0.91199004    -0.34400
O2791       O  0.32719640  0.32838128  0.94891279    -0.35800
O2792       O  0.29069103  0.33943309  0.92719007    -0.40100
C2793       C  0.19398579  0.25960453  0.14533970    -0.13800
C2794       C  0.20011748  0.24829122  0.12019378     0.16600
C2795       C  0.22452740  0.23442190  0.11661961     0.02900
C2796       C  0.24287087  0.23282059  0.13774825    -0.12300
C2797       C  0.23731071  0.24472844  0.16277845    -0.03400
C2798       C  0.21244682  0.25806817  0.16665895     0.02100
C2799       C  0.18219918  0.25281610  0.09697889     0.08900
N2800       N  0.23080243  0.22166220  0.09158044     0.65300
H2801       H  0.26158269  0.22204621  0.13453762     0.18200
N2802       N  0.20645975  0.27169393  0.19133849     0.75800
H2803       H  0.17537059  0.27066691  0.14802798     0.09700
C2804       C  0.15639664  0.24120578  0.09566615     0.03400
C2805       C  0.14126945  0.24358942  0.07201130    -0.05300
C2806       C  0.15160331  0.25747382  0.04957392    -0.23700
C2807       C  0.17661666  0.27087074  0.05175637     0.12700
C2808       C  0.19179111  0.26815232  0.07528414    -0.12800
N2809       N  0.14612272  0.22548353  0.11750137     0.64300
H2810       H  0.12206514  0.23327195  0.07070087     0.12200
N2811       N  0.18648869  0.28783657  0.03058496     0.61000
H2812       H  0.21126687  0.27796071  0.07664665     0.08400
O2813       O  0.18672725  0.26415586  0.20551375    -0.40500
O2814       O  0.21836205  0.29347539  0.19693297    -0.39700
O2815       O  0.24916454  0.23115293  0.07674950    -0.39700
O2816       O  0.22049208  0.19908529  0.08601443    -0.37400
O2817       O  0.17360266  0.30880540  0.02422567    -0.38300
O2818       O  0.20980796  0.28419112  0.02114151    -0.34400
O2819       O  0.12750096  0.23473414  0.13211338    -0.35800
O2820       O  0.15342810  0.20128766  0.12023806    -0.40100
C2821       C  0.19649763  0.23694589  0.92761695    -0.13800
C2822       C  0.18662060  0.24884171  0.90402720     0.16600
C2823       C  0.16026307  0.25924199  0.90365372     0.02900
C2824       C  0.14467428  0.25861866  0.92719601    -0.12300
C2825       C  0.15509361  0.24786429  0.95122991    -0.03400
C2826       C  0.18107145  0.23632206  0.95108938     0.02100
C2827       C  0.20432034  0.24935385  0.88011732     0.08900
N2828       N  0.14955945  0.27152907  0.87993669     0.65300
H2829       H  0.12475684  0.26751393  0.92692108     0.18200
N2830       N  0.19170337  0.22291694  0.97424643     0.75800
H2831       H  0.21634550  0.22786413  0.92773700     0.09700
C2832       C  0.23000195  0.26131995  0.88170638     0.03400
C2833       C  0.24857061  0.25741296  0.86102483    -0.05300
C2834       C  0.24199835  0.24184721  0.83839942    -0.23700
C2835       C  0.21601725  0.23036751  0.83640207     0.12700
C2836       C  0.19730728  0.23441334  0.85717827    -0.12800
N2837       N  0.23751735  0.27739064  0.90439529     0.64300
H2838       H  0.26817072  0.26694460  0.86255298     0.12200
N2839       N  0.20920916  0.21273749  0.81464206     0.61000
H2840       H  0.17788581  0.22447067  0.85619501     0.08400
O2841       O  0.21154473  0.23297965  0.98653359    -0.40500
O2842       O  0.18505080  0.19879607  0.97887040    -0.39700
O2843       O  0.13054464  0.26024497  0.86739999    -0.39700
O2844       O  0.15606109  0.29542253  0.87408661    -0.37400
O2845       O  0.22152942  0.19066929  0.81190958    -0.38300
O2846       O  0.18954854  0.21812758  0.79948782    -0.34400
O2847       O  0.25595645  0.26946109  0.91996420    -0.35800
O2848       O  0.22847526  0.30103714  0.90666197    -0.40100
C2849       C  0.80752172  0.60475483  0.07548191    -0.13800
C2850       C  0.81899455  0.59284783  0.09831308     0.16600
C2851       C  0.82794002  0.56597543  0.09702988     0.02900
C2852       C  0.82598842  0.55169749  0.07274334    -0.12300
C2853       C  0.81515879  0.56382282  0.04954411    -0.03400
C2854       C  0.80531428  0.59048963  0.05126965     0.02100
C2855       C  0.82170064  0.60931335  0.12295133     0.08900
N2856       N  0.83885194  0.55290188  0.12021817     0.65300
H2857       H  0.83349296  0.53121301  0.07192278     0.18200
N2858       N  0.79198524  0.60297796  0.02902048     0.75800
H2859       H  0.80013060  0.62528213  0.07652702     0.09700
C2860       C  0.84621096  0.62221174  0.12921081     0.03400
C2861       C  0.84718228  0.64107253  0.15014868    -0.05300
C2862       C  0.82407129  0.64706771  0.16515611    -0.23700
C2863       C  0.79985785  0.63325281  0.15980968     0.12700
C2864       C  0.79876517  0.61467214  0.13857523    -0.12800
N2865       N  0.86987241  0.61746951  0.11352437     0.64300
H2866       H  0.86586948  0.65163093  0.15423468     0.12200
N2867       N  0.77596411  0.63897087  0.17483164     0.61000
H2868       H  0.77981201  0.60494623  0.13376882     0.08400
O2869       O  0.80209373  0.62368364  0.01821823    -0.40500
O2870       O  0.76806271  0.59637777  0.02351155    -0.39700
O2871       O  0.82343032  0.53961905  0.13548571    -0.39700
O2872       O  0.86399267  0.54982218  0.12215147    -0.37400
O2873       O  0.75801225  0.65383894  0.16473745    -0.38300
O2874       O  0.77096787  0.62590794  0.19607705    -0.34400
O2875       O  0.87327963  0.63020434  0.09177872    -0.35800
O2876       O  0.88939139  0.60488627  0.12380883    -0.40100
C2877       C  0.84327392  0.60048333  0.92524096    -0.13800
C2878       C  0.82740888  0.59341673  0.90299522     0.16600
C2879       C  0.81100278  0.57032471  0.90423705     0.02900
C2880       C  0.80994762  0.55513356  0.92800855    -0.12300
C2881       C  0.82487350  0.56287362  0.95075694    -0.03400
C2882       C  0.84237574  0.58523969  0.94896183     0.02100
C2883       C  0.82691263  0.61150458  0.87940423     0.08900
N2884       N  0.79426486  0.56295807  0.88202058     0.65300
H2885       H  0.79647225  0.53796182  0.92908018     0.18200
N2886       N  0.86010267  0.59198907  0.97063788     0.75800
H2887       H  0.85633772  0.61797567  0.92415581     0.09700
C2888       C  0.81267256  0.63591529  0.88075212     0.03400
C2889       C  0.81406586  0.65410963  0.85937995    -0.05300
C2890       C  0.82923974  0.64833246  0.83620568    -0.23700
C2891       C  0.84332065  0.62362247  0.83466959     0.12700
C2892       C  0.84203485  0.60539093  0.85630593    -0.12800
N2893       N  0.79658191  0.64238910  0.90376511     0.64300
H2894       H  0.80285632  0.67279240  0.86081214     0.12200
N2895       N  0.86023219  0.61752534  0.81215128     0.61000
H2896       H  0.85340612  0.58678269  0.85540799     0.08400
O2897       O  0.85790771  0.61442370  0.98239211    -0.40500
O2898       O  0.88007037  0.57709336  0.97564318    -0.39700
O2899       O  0.79924060  0.54177858  0.86888186    -0.39700
O2900       O  0.77268567  0.57564627  0.87770823    -0.37400
O2901       O  0.88438947  0.62546948  0.81199356    -0.38300
O2902       O  0.85238472  0.60089207  0.79460520    -0.34400
O2903       O  0.80226942  0.66273903  0.91790345    -0.35800
O2904       O  0.77498096  0.62967596  0.90811397    -0.40100
C2905       C  0.96038981  0.74892158  0.14164157    -0.13800
C2906       C  0.95543089  0.73246024  0.11928456     0.16600
C2907       C  0.93192257  0.71656129  0.11847304     0.02900
C2908       C  0.91291454  0.71868882  0.13911047    -0.12300
C2909       C  0.91731902  0.73588344  0.16110709    -0.03400
C2910       C  0.94159652  0.75069198  0.16259735     0.02100
C2911       C  0.97323235  0.73453146  0.09557642     0.08900
N2912       N  0.92743701  0.69778037  0.09708984     0.65300
H2913       H  0.89481183  0.70648108  0.13815367     0.18200
N2914       N  0.94671228  0.76883195  0.18436221     0.75800
H2915       H  0.97834935  0.76135154  0.14223439     0.09700
C2916       C  0.96378713  0.74636066  0.07160198     0.03400
C2917       C  0.98039563  0.74691485  0.04894208    -0.05300
C2918       C  0.00681860  0.73677444  0.04976525    -0.23700
C2919       C  0.01662412  0.72595560  0.07421616     0.12700
C2920       C  0.99965306  0.72468949  0.09681098    -0.12800
N2921       N  0.93773034  0.75873017  0.07025173     0.64300
H2922       H  0.97267179  0.75602935  0.03067841     0.12200
N2923       N  0.04334315  0.71550832  0.07630139     0.61000
H2924       H  0.00704464  0.71584518  0.11534550     0.08400
O2925       O  0.93587693  0.79182512  0.18444409    -0.40500
O2926       O  0.96499235  0.76351404  0.20117638    -0.39700
O2927       O  0.94043481  0.67594184  0.09673773    -0.39700
O2928       O  0.90727459  0.70051628  0.08188558    -0.37400
O2929       O  0.06250055  0.73119380  0.08212366    -0.38300
O2930       O  0.04693180  0.69036170  0.07746683    -0.34400
O2931       O  0.93181315  0.77753650  0.08631390    -0.35800
O2932       O  0.92229839  0.75375673  0.05067692    -0.40100
C2933       C  0.93216675  0.72147225  0.88422520    -0.13800
C2934       C  0.95423638  0.73911684  0.88257393     0.16600
C2935       C  0.95841178  0.75413366  0.85889255     0.02900
C2936       C  0.94025035  0.75178309  0.83749789    -0.12300
C2937       C  0.91758039  0.73495703  0.83952079    -0.03400
C2938       C  0.91387528  0.71922242  0.86292583     0.02100
C2939       C  0.97258771  0.74150409  0.90588892     0.08900
N2940       N  0.97998675  0.77312510  0.85701344     0.65300
H2941       H  0.94317417  0.76418093  0.81974400     0.18200
N2942       N  0.89224031  0.70023819  0.86493771     0.75800
H2943       H  0.92922380  0.70930661  0.90213445     0.09700
C2944       C  0.96264905  0.74969673  0.93109034     0.03400
C2945       C  0.97935251  0.74880596  0.95362582    -0.05300
C2946       C  0.00627601  0.74015698  0.95168708    -0.23700
C2947       C  0.01653085  0.73280517  0.92612535     0.12700
C2948       C  0.99961248  0.73360050  0.90348873    -0.12800
N2949       N  0.93568181  0.75942476  0.93395979     0.64300
H2950       H  0.97110852  0.75526129  0.97278022     0.12200
N2951       N  0.04346052  0.72313945  0.92295267     0.61000
H2952       H  0.00728943  0.72697854  0.88415183     0.08400
O2953       O  0.87372034  0.70385942  0.88197749    -0.40500
O2954       O  0.89384187  0.67797978  0.85274374    -0.39700
O2955       O  0.99887662  0.76924933  0.84045202    -0.39700
O2956       O  0.97817145  0.79548438  0.86898265    -0.37400
O2957       O  0.04939340  0.69966767  0.93073411    -0.38300
O2958       O  0.05989259  0.73608843  0.90847688    -0.34400
O2959       O  0.91943774  0.74756349  0.94954617    -0.35800
O2960       O  0.92903230  0.78151653  0.92326834    -0.40100
C2961       C  0.47069375  0.06412264  0.76381139    -0.13800
C2962       C  0.47705136  0.08524602  0.74624218     0.16600
C2963       C  0.50113612  0.08429735  0.73125819     0.02900
C2964       C  0.51765626  0.06143783  0.73284966    -0.12300
C2965       C  0.51032954  0.03951215  0.74922250    -0.03400
C2966       C  0.48703907  0.04138738  0.76544128     0.02100
C2967       C  0.45780563  0.10772274  0.74379504     0.08900
N2968       N  0.50820058  0.10566323  0.71327447     0.65300
H2969       H  0.53544741  0.06026081  0.72024517     0.18200
N2970       N  0.47980620  0.02040121  0.78383029     0.75800
H2971       H  0.45269287  0.06517930  0.77614244     0.09700
C2972       C  0.43121726  0.10290407  0.73521556     0.03400
C2973       C  0.41230833  0.12361452  0.73602531    -0.05300
C2974       C  0.41925827  0.14935067  0.74551965    -0.23700
C2975       C  0.44606748  0.15420408  0.75405154     0.12700
C2976       C  0.46509858  0.13343366  0.75285086    -0.12800
N2977       N  0.42310462  0.07694246  0.72571746     0.64300
H2978       H  0.39204216  0.11942171  0.72908732     0.12200
N2979       N  0.45387761  0.17939651  0.76568967     0.61000
H2980       H  0.48531224  0.13702900  0.76025309     0.08400
O2981       O  0.45975546  0.00556089  0.77886706    -0.40500
O2982       O  0.49048743  0.01970807  0.80687075    -0.39700
O2983       O  0.52496420  0.12334840  0.72054733    -0.39700
O2984       O  0.50033527  0.10498056  0.68912418    -0.37400
O2985       O  0.44852410  0.18413251  0.79008907    -0.38300
O2986       O  0.46987739  0.19471731  0.75317557    -0.34400
O2987       O  0.40845584  0.06216935  0.74037434    -0.35800
O2988       O  0.42630794  0.07101994  0.70121195    -0.40100
C2989       C  0.49821922  0.89414435  0.75309118    -0.13800
C2990       C  0.47166059  0.89650039  0.74363087     0.16600
C2991       C  0.46276646  0.92151328  0.73361658     0.02900
C2992       C  0.48012609  0.94367895  0.73371310    -0.12300
C2993       C  0.50658352  0.94160248  0.74356698    -0.03400
C2994       C  0.51568063  0.91643410  0.75318615     0.02100
C2995       C  0.45271223  0.87350753  0.74648081     0.08900
N2996       N  0.43612719  0.92468054  0.72316393     0.65300
H2997       H  0.47276355  0.96270250  0.72592479     0.18200
N2998       N  0.54175062  0.91365919  0.76499951     0.75800
H2999       H  0.50506853  0.87520332  0.76150662     0.09700
C3000       C  0.45799047  0.84822802  0.73470261     0.03400
C3001       C  0.43964227  0.82699816  0.73805296    -0.05300
C3002       C  0.41570279  0.83060089  0.75273715    -0.23700
C3003       C  0.41080128  0.85577264  0.76511906     0.12700
C3004       C  0.42926583  0.87685875  0.76191622    -0.12800
N3005       N  0.48119497  0.84424988  0.71814439     0.64300
H3006       H  0.44362540  0.80795147  0.72814903     0.12200
N3007       N  0.38761031  0.85999961  0.78170026     0.61000
H3008       H  0.42541779  0.89592811  0.77182937     0.08400
O3009       O  0.56028512  0.90199932  0.75211498    -0.40500
O3010       O  0.54506996  0.91918572  0.78958392    -0.39700
O3011       O  0.41934068  0.93919719  0.73555511    -0.39700
O3012       O  0.43078526  0.91657282  0.69967994    -0.37400
O3013       O  0.38728494  0.85106624  0.80550586    -0.38300
O3014       O  0.36917272  0.87564826  0.77391757    -0.34400
O3015       O  0.50019330  0.82953984  0.72637670    -0.35800
O3016       O  0.48086806  0.85195830  0.69392100    -0.40100
C3017       C  0.32778169  0.08494553  0.91902344    -0.13800
C3018       C  0.31795464  0.08262355  0.89257957     0.16600
C3019       C  0.30682989  0.05797681  0.88405072     0.02900
C3020       C  0.30667420  0.03589993  0.90141441    -0.12300
C3021       C  0.31742093  0.03769324  0.92752068    -0.03400
C3022       C  0.32771578  0.06267394  0.93652757     0.02100
C3023       C  0.32160011  0.10506508  0.87320345     0.08900
N3024       N  0.29559518  0.05507798  0.85770443     0.65300
H3025       H  0.29809245  0.01711804  0.89427950     0.18200
N3026       N  0.33999854  0.06523770  0.96244882     0.75800
H3027       H  0.33679881  0.10371454  0.92562206     0.09700
C3028       C  0.31055042  0.13075724  0.87785890     0.03400
C3029       C  0.31433408  0.15129123  0.85885603    -0.05300
C3030       C  0.32872255  0.14656302  0.83490160    -0.23700
C3031       C  0.34046831  0.12101631  0.83067596     0.12700
C3032       C  0.33685702  0.10061296  0.84980104    -0.12800
N3033       N  0.29433273  0.13587568  0.90110148     0.64300
H3034       H  0.30498073  0.17070569  0.86235594     0.12200
N3035       N  0.35686720  0.11575492  0.80756829     0.61000
H3036       H  0.34624073  0.08118479  0.84647758     0.08400
O3037       O  0.36276433  0.05478620  0.96668994    -0.40500
O3038       O  0.32999014  0.08094823  0.97974385    -0.39700
O3039       O  0.30737079  0.04056923  0.84047141    -0.39700
O3040       O  0.27197022  0.06323177  0.85318081    -0.37400
O3041       O  0.38083343  0.12423505  0.80689893    -0.38300
O3042       O  0.34875469  0.09960155  0.78969334    -0.34400
O3043       O  0.30224098  0.15247682  0.91865228    -0.35800
O3044       O  0.27069121  0.12658425  0.90231732    -0.40100
C3045       C  0.32987775  0.91538349  0.88768358    -0.13800
C3046       C  0.31642106  0.89254837  0.89742187     0.16600
C3047       C  0.30627966  0.89278382  0.92397208     0.02900
C3048       C  0.30871975  0.91615894  0.93981609    -0.12300
C3049       C  0.32111546  0.93951942  0.92953670    -0.03400
C3050       C  0.33239013  0.93862431  0.90331984     0.02100
C3051       C  0.31437366  0.86863885  0.87949610     0.08900
N3052       N  0.29231336  0.86994876  0.93460883     0.65300
H3053       H  0.29983643  0.91637038  0.95975672     0.18200
N3054       N  0.34696165  0.96096808  0.89233781     0.75800
H3055       H  0.33873572  0.91510848  0.86771556     0.09700
C3056       C  0.30338032  0.87110275  0.85343219     0.03400
C3057       C  0.30636008  0.85017498  0.83483266    -0.05300
C3058       C  0.31985727  0.82626642  0.84165652    -0.23700
C3059       C  0.32984280  0.82327905  0.86819709     0.12700
C3060       C  0.32701179  0.84443023  0.88680433    -0.12800
N3061       N  0.28915573  0.89488205  0.84555623     0.64300
H3062       H  0.29784896  0.85265197  0.81488767     0.12200
N3063       N  0.34462347  0.79983923  0.87602009     0.61000
H3064       H  0.33608970  0.84250796  0.90655034     0.08400
O3065       O  0.33679068  0.97467956  0.87350659    -0.40500
O3066       O  0.37144713  0.96418478  0.89832199    -0.39700
O3067       O  0.30303361  0.85598703  0.95293190    -0.39700
O3068       O  0.26787040  0.86625545  0.92872586    -0.37400
O3069       O  0.36889383  0.79737206  0.86887366    -0.38300
O3070       O  0.33513485  0.78426933  0.89376168    -0.34400
O3071       O  0.29797641  0.90923440  0.82648568    -0.35800
O3072       O  0.26593606  0.89929570  0.85490433    -0.40100
C3073       C  0.66012947  0.08676395  0.26115835    -0.13800
C3074       C  0.68447054  0.08445483  0.24698821     0.16600
C3075       C  0.69139862  0.05964307  0.23520981     0.02900
C3076       C  0.67449245  0.03741729  0.23843223    -0.12300
C3077       C  0.65046554  0.03932385  0.25324821    -0.03400
C3078       C  0.64312652  0.06435945  0.26467497     0.02100
C3079       C  0.70400670  0.10695173  0.24745740     0.08900
N3080       N  0.71552665  0.05682080  0.21973762     0.65300
H3081       H  0.68018852  0.01849169  0.22913552     0.18200
N3082       N  0.61978544  0.06697716  0.28147719     0.75800
H3083       H  0.65513890  0.10566764  0.27087652     0.09700
C3084       C  0.69796335  0.13242943  0.23655778     0.03400
C3085       C  0.71706755  0.15319950  0.23794431    -0.05300
C3086       C  0.74235612  0.14886975  0.24990223    -0.23700
C3087       C  0.74792829  0.12349222  0.26161323     0.12700
C3088       C  0.72881394  0.10289179  0.26020901    -0.12800
N3089       N  0.67301690  0.13710513  0.22302863     0.64300
H3090       H  0.71245293  0.17246399  0.22875378     0.12200
N3091       N  0.77250828  0.11852477  0.27577777     0.61000
H3092       H  0.73318736  0.08365792  0.26959133     0.08400
O3093       O  0.60565782  0.08805695  0.28013864    -0.40500
O3094       O  0.61632835  0.05097620  0.30095984    -0.39700
O3095       O  0.73555550  0.04478193  0.22969163    -0.39700
O3096       O  0.71522942  0.06222319  0.19490240    -0.37400
O3097       O  0.77625351  0.12903943  0.29861717    -0.38300
O3098       O  0.78847925  0.10060497  0.26743595    -0.34400
O3099       O  0.65594465  0.15300143  0.23310378    -0.35800
O3100       O  0.66965293  0.12833622  0.19941283    -0.40100
C3101       C  0.72464701  0.87810109  0.24426719    -0.13800
C3102       C  0.70086317  0.87308847  0.25868484     0.16600
C3103       C  0.69551548  0.84679584  0.26793973     0.02900
C3104       C  0.71429275  0.82620898  0.26335065    -0.12300
C3105       C  0.73870205  0.83141148  0.24985346    -0.03400
C3106       C  0.74349800  0.85767293  0.23977077     0.02100
C3107       C  0.68156830  0.89552799  0.26266741     0.08900
N3108       N  0.67176741  0.84102851  0.28318945     0.65300
H3109       H  0.71023062  0.80633719  0.27147613     0.18200
N3110       N  0.76703802  0.86384051  0.22432001     0.75800
H3111       H  0.72850921  0.89804686  0.23620885     0.09700
C3112       C  0.68974570  0.91947885  0.27547093     0.03400
C3113       C  0.67306726  0.94210768  0.27490650    -0.05300
C3114       C  0.64801660  0.94152849  0.26174684    -0.23700
C3115       C  0.63918317  0.91704076  0.25008976     0.12700
C3116       C  0.65597835  0.89429823  0.25073055    -0.12800
N3117       N  0.71520791  0.92120501  0.28878711     0.64300
H3118       H  0.68006108  0.96043862  0.28450500     0.12200
N3119       N  0.61437819  0.91547362  0.23558164     0.61000
H3120       H  0.64966473  0.87607805  0.24047544     0.08400
O3121       O  0.78572165  0.87759134  0.23472142    -0.40500
O3122       O  0.76702638  0.85973548  0.19923617    -0.39700
O3123       O  0.65441310  0.82487151  0.27400702    -0.39700
O3124       O  0.67001284  0.84897111  0.30727205    -0.37400
O3125       O  0.61340961  0.92339443  0.21144028    -0.38300
O3126       O  0.59478021  0.90254424  0.24538311    -0.34400
O3127       O  0.73361597  0.93585443  0.27908651    -0.35800
O3128       O  0.71784890  0.91149466  0.31212893    -0.40100
C3129       C  0.84998138  0.06312123  0.10841937    -0.13800
C3130       C  0.83221234  0.08379062  0.10115908     0.16600
C3131       C  0.81713207  0.08136707  0.07728246     0.02900
C3132       C  0.81966875  0.05816873  0.06125856    -0.12300
C3133       C  0.83697752  0.03710509  0.06887629    -0.03400
C3134       C  0.85264206  0.04001495  0.09244107     0.02100
C3135       C  0.82953822  0.10745763  0.11916220     0.08900
N3136       N  0.79836372  0.10179868  0.06973521     0.65300
H3137       H  0.80733925  0.05618912  0.04336751     0.18200
N3138       N  0.87211837  0.02013439  0.09980670     0.75800
H3139       H  0.86199757  0.06505761  0.12653641     0.09700
C3140       C  0.81497736  0.10543376  0.14338818     0.03400
C3141       C  0.81517799  0.12679985  0.16176243    -0.05300
C3142       C  0.82965601  0.15058019  0.15644457    -0.23700
C3143       C  0.84387595  0.15283731  0.13183179     0.12700
C3144       C  0.84365487  0.13130812  0.11341403    -0.12800
N3145       N  0.80002400  0.08161605  0.14964549     0.64300
H3146       H  0.80392454  0.12473333  0.18037467     0.12200
N3147       N  0.86018239  0.17592659  0.12614117     0.61000
H3148       H  0.85533815  0.13281229  0.09502118     0.08400
O3149       O  0.86891505  0.00640312  0.12097239    -0.40500
O3150       O  0.89401345  0.01859911  0.08696797    -0.39700
O3151       O  0.80456884  0.11870854  0.05177846    -0.39700
O3152       O  0.77458386  0.10102075  0.07869251    -0.37400
O3153       O  0.88426291  0.17663844  0.13422712    -0.38300
O3154       O  0.85204152  0.19339056  0.10956890    -0.34400
O3155       O  0.80909384  0.06508879  0.16668455    -0.35800
O3156       O  0.77614641  0.07918816  0.14131361    -0.40100
C3157       C  0.83302028  0.84256331  0.11047364    -0.13800
C3158       C  0.84435655  0.86739686  0.11782930     0.16600
C3159       C  0.85378837  0.87097681  0.14430251     0.02900
C3160       C  0.85015821  0.85061552  0.16342913    -0.12300
C3161       C  0.83736127  0.82623564  0.15671558    -0.03400
C3162       C  0.82950488  0.82195131  0.12961033     0.02100
C3163       C  0.84206733  0.89088223  0.09952850     0.08900
N3164       N  0.86668508  0.89551529  0.15213898     0.65300
H3165       H  0.85729797  0.85404541  0.18375191     0.18200
N3166       N  0.81650506  0.79752663  0.12150916     0.75800
H3167       H  0.82546582  0.83973025  0.09019799     0.09700
C3168       C  0.85863428  0.89432763  0.07670801     0.03400
C3169       C  0.85649968  0.91796424  0.06120006    -0.05300
C3170       C  0.83795887  0.93819605  0.06814606    -0.23700
C3171       C  0.82076037  0.93412310  0.09039214     0.12700
C3172       C  0.82304146  0.91072103  0.10588817    -0.12800
N3173       N  0.87826445  0.87451713  0.06964577     0.64300
H3174       H  0.86979812  0.92081714  0.04410792     0.12200
N3175       N  0.80009305  0.95308238  0.09681241     0.61000
H3176       H  0.80982617  0.90797534  0.12307521     0.08400
O3177       O  0.79273568  0.79257391  0.12908967    -0.40500
O3178       O  0.82831723  0.78145841  0.10574854    -0.39700
O3179       O  0.85371063  0.91293925  0.16532255    -0.39700
O3180       O  0.89190867  0.89771603  0.14989699    -0.37400
O3181       O  0.77736478  0.95100210  0.08564771    -0.38300
O3182       O  0.80283019  0.96842216  0.11689025    -0.34400
O3183       O  0.87136401  0.85433460  0.05580920    -0.35800
O3184       O  0.90294608  0.87945488  0.07317114    -0.40100
C3185       C  0.81082568  0.41384016  0.09722528    -0.13800
C3186       C  0.82461496  0.38920191  0.09554012     0.16600
C3187       C  0.83599823  0.38135038  0.07081254     0.02900
C3188       C  0.83239890  0.39729969  0.04797842    -0.12300
C3189       C  0.81804852  0.42163345  0.04922484    -0.03400
C3190       C  0.80767077  0.43024148  0.07433440     0.02100
C3191       C  0.82440307  0.37011637  0.11848583     0.08900
N3192       N  0.85151244  0.35719465  0.06870948     0.65300
H3193       H  0.84121075  0.39064042  0.02914282     0.18200
N3194       N  0.79265664  0.45469397  0.07663402     0.75800
H3195       H  0.80173729  0.41990582  0.11612585     0.09700
C3196       C  0.83735129  0.37574851  0.14307804     0.03400
C3197       C  0.83770765  0.35618220  0.16353282    -0.05300
C3198       C  0.82532651  0.33092863  0.15977772    -0.23700
C3199       C  0.81111052  0.32605889  0.13561575     0.12700
C3200       C  0.81097567  0.34548215  0.11525650    -0.12800
N3201       N  0.85119532  0.40069348  0.14707425     0.64300
H3202       H  0.84852671  0.36040436  0.18200517     0.12200
N3203       N  0.79555580  0.30206832  0.13196530     0.61000
H3204       H  0.80010363  0.34138745  0.09677364     0.08400
O3205       O  0.80446431  0.47614153  0.08353950    -0.40500
O3206       O  0.76725694  0.45391184  0.07630381    -0.39700
O3207       O  0.84236330  0.33730837  0.05577402    -0.39700
O3208       O  0.87575990  0.35717974  0.07628955    -0.37400
O3209       O  0.80260067  0.28494161  0.11455354    -0.38300
O3210       O  0.77256158  0.30031917  0.14267323    -0.34400
O3211       O  0.84246469  0.41742215  0.16410247    -0.35800
O3212       O  0.87391957  0.40443053  0.13629041    -0.40100
C3213       C  0.83286456  0.34345811  0.88832507    -0.13800
C3214       C  0.82070884  0.36831946  0.88255465     0.16600
C3215       C  0.81390632  0.37439302  0.85570995     0.02900
C3216       C  0.81795464  0.35512572  0.83545243    -0.12300
C3217       C  0.82897842  0.32965724  0.84135652    -0.03400
C3218       C  0.83737677  0.32431716  0.86808087     0.02100
C3219       C  0.81587085  0.38760735  0.90494446     0.08900
N3220       N  0.80176577  0.39957403  0.84889736     0.65300
H3221       H  0.81150582  0.35986449  0.81515254     0.18200
N3222       N  0.85134457  0.30003259  0.87488123     0.75800
H3223       H  0.83928783  0.33904043  0.90871393     0.09700
C3224       C  0.80066008  0.37978388  0.92761557     0.03400
C3225       C  0.79970546  0.39639498  0.95033578    -0.05300
C3226       C  0.81318567  0.42128711  0.95084222    -0.23700
C3227       C  0.82727168  0.42984321  0.92759427     0.12700
C3228       C  0.82858275  0.41292410  0.90493409    -0.12800
N3229       N  0.78583432  0.35505818  0.92767893     0.64300
H3230       H  0.78826167  0.38976218  0.96772920     0.12200
N3231       N  0.84201170  0.45461668  0.92737708     0.61000
H3232       H  0.84064533  0.41902502  0.88777780     0.08400
O3233       O  0.84143223  0.28402332  0.89199983    -0.40500
O3234       O  0.87520093  0.29656681  0.86679356    -0.39700
O3235       O  0.81501690  0.41682787  0.83569489    -0.39700
O3236       O  0.77678062  0.40277333  0.85223152    -0.37400
O3237       O  0.86453568  0.45602560  0.93905031    -0.38300
O3238       O  0.83429952  0.47384840  0.91265175    -0.34400
O3239       O  0.79275033  0.33610568  0.94314320    -0.35800
O3240       O  0.76382399  0.35355202  0.91508053    -0.40100
C3241       C  0.93382522  0.25349715  0.11107574    -0.13800
C3242       C  0.95746785  0.23839576  0.11441034     0.16600
C3243       C  0.96251166  0.22597424  0.13942808     0.02900
C3244       C  0.94358158  0.22818024  0.16027850    -0.12300
C3245       C  0.91938150  0.24240481  0.15654552    -0.03400
C3246       C  0.91480478  0.25552809  0.13172949     0.02100
C3247       C  0.97660225  0.23655570  0.09151219     0.08900
N3248       N  0.98608547  0.21000333  0.14352458     0.65300
H3249       H  0.94737912  0.21780973  0.17911340     0.18200
N3250       N  0.89132601  0.27162956  0.12740894     0.75800
H3251       H  0.93019567  0.26402450  0.09229710     0.09700
C3252       C  0.96763247  0.22805244  0.06599087     0.03400
C3253       C  0.98451858  0.23045863  0.04366608    -0.05300
C3254       C  0.01066881  0.24106437  0.04602296    -0.23700
C3255       C  0.02017129  0.24847519  0.07185177     0.12700
C3256       C  0.00307176  0.24618295  0.09429959    -0.12800
N3257       N  0.94125562  0.21702000  0.06240704     0.64300
H3258       H  0.97692559  0.22396065  0.02426490     0.12200
N3259       N  0.04633745  0.25997533  0.07544471     0.61000
H3260       H  0.01004926  0.25324882  0.11372841     0.08400
O3261       O  0.87378917  0.26415307  0.11060557    -0.40500
O3262       O  0.88998834  0.29495520  0.13744903    -0.39700
O3263       O  0.00444273  0.21839660  0.15896182    -0.39700
O3264       O  0.98642744  0.18584811  0.13558643    -0.37400
O3265       O  0.05014485  0.28460787  0.07033027    -0.38300
O3266       O  0.06438773  0.24672507  0.08744055    -0.34400
O3267       O  0.92409591  0.22963563  0.04855471    -0.35800
O3268       O  0.93660828  0.19296857  0.06927082    -0.40100
C3269       C  0.00599231  0.24518417  0.89958503    -0.13800
C3270       C  0.97851791  0.25151228  0.90186200     0.16600
C3271       C  0.96802535  0.25876156  0.92719815     0.02900
C3272       C  0.98453148  0.25817654  0.94986731    -0.12300
C3273       C  0.01181577  0.25087986  0.94805626    -0.03400
C3274       C  0.02275456  0.24498345  0.92238924     0.02100
C3275       C  0.96013563  0.24752400  0.87867484     0.08900
N3276       N  0.94045633  0.26658838  0.93023936     0.65300
H3277       H  0.97573626  0.26354620  0.96911371     0.18200
N3278       N  0.05030618  0.23729629  0.91926920     0.75800
H3279       H  0.01420965  0.23927197  0.88024636     0.09700
C3280       C  0.96338409  0.26150677  0.85417616     0.03400
C3281       C  0.94442736  0.25811485  0.83351135    -0.05300
C3282       C  0.92185763  0.24134878  0.83712659    -0.23700
C3283       C  0.91922678  0.22664972  0.86132887     0.12700
C3284       C  0.93844222  0.22961060  0.88162442    -0.12800
N3285       N  0.98474725  0.28051118  0.85069047     0.64300
H3286       H  0.94663235  0.26970208  0.81512351     0.12200
N3287       N  0.89726942  0.20845203  0.86554251     0.61000
H3288       H  0.93614109  0.21816497  0.90009137     0.08400
O3289       O  0.06744414  0.25455541  0.91178734    -0.40500
O3290       O  0.05661431  0.21267024  0.91966876    -0.39700
O3291       O  0.92514288  0.25350437  0.94579897    -0.39700
O3292       O  0.93228357  0.28831366  0.91987242    -0.37400
O3293       O  0.87719025  0.21592258  0.87922637    -0.38300
O3294       O  0.90010846  0.18381577  0.85993986    -0.34400
O3295       O  0.00421228  0.27495348  0.83531879    -0.35800
O3296       O  0.98199706  0.30426185  0.85934082    -0.40100
C3297       C  0.31905954  0.60189471  0.06927748    -0.13800
C3298       C  0.33359105  0.59452888  0.09229084     0.16600
C3299       C  0.34652259  0.56929327  0.09317209     0.02900
C3300       C  0.34572332  0.55233085  0.07061257    -0.12300
C3301       C  0.33236331  0.56036933  0.04703583    -0.03400
C3302       C  0.31819551  0.58503635  0.04679697     0.02100
C3303       C  0.33474598  0.61358286  0.11512338     0.08900
N3304       N  0.36186634  0.56141996  0.11619550     0.65300
H3305       H  0.35675264  0.53350144  0.07104798     0.18200
N3306       N  0.30218674  0.59285033  0.02416729     0.75800
H3307       H  0.30825452  0.62086435  0.06882214     0.09700
C3308       C  0.34510298  0.63978109  0.11152119     0.03400
C3309       C  0.34344844  0.65845846  0.13247513    -0.05300
C3310       C  0.33201344  0.65144526  0.15740225    -0.23700
C3311       C  0.32171415  0.62506654  0.16102005     0.12700
C3312       C  0.32323974  0.60640708  0.13990657    -0.12800
N3313       N  0.35794467  0.64746338  0.08685002     0.64300
H3314       H  0.35186800  0.67839114  0.12939194     0.12200
N3315       N  0.30842521  0.61732142  0.18540576     0.61000
H3316       H  0.31459317  0.58650952  0.14255667     0.08400
O3317       O  0.30863300  0.61333241  0.01051443    -0.40500
O3318       O  0.27960882  0.58178736  0.02035889    -0.39700
O3319       O  0.35381274  0.54227959  0.13089504    -0.39700
O3320       O  0.38478603  0.57166838  0.12021109    -0.37400
O3321       O  0.28425512  0.62412500  0.18933305    -0.38300
O3322       O  0.31945344  0.60065430  0.20110210    -0.34400
O3323       O  0.34987510  0.66792801  0.07410326    -0.35800
O3324       O  0.37910413  0.63556025  0.07933311    -0.40100
C3325       C  0.35237260  0.59897354  0.92455869    -0.13800
C3326       C  0.33576599  0.59050962  0.90339134     0.16600
C3327       C  0.32361635  0.56486854  0.90452247     0.02900
C3328       C  0.32708597  0.54871580  0.92740995    -0.12300
C3329       C  0.34238081  0.55794403  0.94932236    -0.03400
C3330       C  0.35582772  0.58295265  0.94739944     0.02100
C3331       C  0.33146403  0.60903584  0.88051812     0.08900
N3332       N  0.30629120  0.55579366  0.88343358     0.65300
H3333       H  0.31650980  0.52963173  0.92868028     0.18200
N3334       N  0.37338456  0.59214184  0.96829967     0.75800
H3335       H  0.36260429  0.61825624  0.92337605     0.09700
C3336       C  0.32027020  0.63472690  0.88479004     0.03400
C3337       C  0.31942834  0.65331140  0.86373922    -0.05300
C3338       C  0.32961860  0.64688736  0.83811916    -0.23700
C3339       C  0.34031850  0.62081080  0.83368987     0.12700
C3340       C  0.34107362  0.60215225  0.85488209    -0.12800
N3341       N  0.30981074  0.64227045  0.91054569     0.64300
H3342       H  0.31073589  0.67296357  0.86759662     0.12200
N3343       N  0.35204783  0.61349780  0.80842607     0.61000
H3344       H  0.35022995  0.58260703  0.85160695     0.08400
O3345       O  0.36744612  0.61299540  0.98157293    -0.40500
O3346       O  0.39673109  0.58231609  0.97023413    -0.39700
O3347       O  0.31441374  0.53797726  0.86723209    -0.39700
O3348       O  0.28169368  0.56213840  0.88379892    -0.37400
O3349       O  0.37690645  0.61716559  0.80454190    -0.38300
O3350       O  0.33867093  0.59960470  0.79186897    -0.34400
O3351       O  0.32212804  0.65951249  0.92460027    -0.35800
O3352       O  0.28634789  0.63507824  0.91720720    -0.40100
C3353       C  0.23088321  0.74071211  0.10941504    -0.13800
C3354       C  0.20374987  0.73752180  0.11641363     0.16600
C3355       C  0.19660619  0.73589464  0.14385000     0.02900
C3356       C  0.21663669  0.73784876  0.16365409    -0.12300
C3357       C  0.24408021  0.74023838  0.15674317    -0.03400
C3358       C  0.25102705  0.74167075  0.12902354     0.02100
C3359       C  0.18366138  0.73549139  0.09439024     0.08900
N3360       N  0.16941266  0.73069162  0.15189321     0.65300
H3361       H  0.21063183  0.73641683  0.18458160     0.18200
N3362       N  0.27836702  0.74356642  0.12012840     0.75800
H3363       H  0.23657729  0.74199252  0.08835947     0.09700
C3364       C  0.16219472  0.75399144  0.09156484     0.03400
C3365       C  0.14494746  0.75198349  0.06920308    -0.05300
C3366       C  0.14967303  0.73285868  0.04891265    -0.23700
C3367       C  0.17081538  0.71422527  0.05206933     0.12700
C3368       C  0.18732492  0.71547208  0.07479148    -0.12800
N3369       N  0.15901184  0.77614256  0.10984230     0.64300
H3370       H  0.12905575  0.76671375  0.06663262     0.12200
N3371       N  0.17578906  0.69389630  0.03230601     0.61000
H3372       H  0.20360357  0.70107640  0.07683818     0.08400
O3373       O  0.28653326  0.76506756  0.10925151    -0.40500
O3374       O  0.29205276  0.72231185  0.11744659    -0.39700
O3375       O  0.15879135  0.70821739  0.14647016    -0.39700
O3376       O  0.15790282  0.74627148  0.16835780    -0.37400
O3377       O  0.19505255  0.69672436  0.01594510    -0.38300
O3378       O  0.16423697  0.67131887  0.03433597    -0.34400
O3379       O  0.17863806  0.79162346  0.11460549    -0.35800
O3380       O  0.13586433  0.78247884  0.11822891    -0.40100
C3381       C  0.15833058  0.74985885  0.90474169    -0.13800
C3382       C  0.17912307  0.73090569  0.90248538     0.16600
C3383       C  0.18412759  0.71304573  0.92389108     0.02900
C3384       C  0.16895045  0.71485566  0.94752979    -0.12300
C3385       C  0.14870320  0.73435218  0.95028545    -0.03400
C3386       C  0.14319782  0.75189173  0.92855149     0.02100
C3387       C  0.19816464  0.73277229  0.87972702     0.08900
N3388       N  0.20506376  0.69340770  0.92207689     0.65300
H3389       H  0.17313215  0.70103087  0.96389862     0.18200
N3390       N  0.12417564  0.77336912  0.93124324     0.75800
H3391       H  0.15494833  0.76415418  0.88858185     0.09700
C3392       C  0.19311518  0.72044820  0.85472551     0.03400
C3393       C  0.21220440  0.72255296  0.83390988    -0.05300
C3394       C  0.23652328  0.73662744  0.83789657    -0.23700
C3395       C  0.24100763  0.74951455  0.86292796     0.12700
C3396       C  0.22194232  0.74737311  0.88349960    -0.12800
N3397       N  0.16910851  0.70511599  0.85057299     0.64300
H3398       H  0.20841847  0.71240737  0.81495715     0.12200
N3399       N  0.26458955  0.76536691  0.86765116     0.61000
H3400       H  0.22570182  0.75723512  0.90262079     0.08400
O3401       O  0.10520246  0.77560956  0.91450779    -0.40500
O3402       O  0.12908817  0.79257430  0.94717442    -0.39700
O3403       O  0.22751597  0.69788989  0.93308789    -0.39700
O3404       O  0.19973919  0.67010760  0.91339451    -0.37400
O3405       O  0.26501342  0.78976336  0.86046420    -0.38300
O3406       O  0.28271966  0.75654898  0.88309605    -0.34400
O3407       O  0.14876052  0.71606843  0.84004750    -0.35800
O3408       O  0.16745562  0.68135045  0.85949399    -0.40100
loop_ 
_geom_bond_atom_site_label_1 
_geom_bond_atom_site_label_2 
_geom_bond_distance 
_geom_bond_site_symmetry_2 
_ccdc_geom_bond_type 
C1            N2   1.357       .  A
C1            N6   1.357       .  A
C1         C3385   1.476       .  S
N2            C3   1.359   1_556  A
C3            N4   1.361       .  A
C3           C51   1.468       .  S
N4            C5   1.358       .  A
C5            N6   1.357   1_554  A
C5         C3366   1.476       .  S
C7            N8   1.354   1_554  A
C7           N12   1.358       .  A
C7         C3301   1.476       .  S
N8            C9   1.354       .  A
C9           N10   1.357       .  A
C9         C3329   1.474       .  S
N10          C11   1.360       .  A
C11          N12   1.361   1_556  A
C11          C71   1.467   1_556  S
C13          N14   1.356       .  A
C13          N18   1.354   1_554  A
C13        C3254   1.485       .  S
N14          C15   1.360   1_554  A
C15          N16   1.361       .  A
C15          C65   1.463       .  S
N16          C17   1.358       .  A
C17          N18   1.356       .  A
C17        C3273   1.486       .  S
C19          N20   1.356   1_556  A
C19          N24   1.358       .  A
C19        C3226   1.483       .  S
N20          C21   1.357       .  A
C21          N22   1.357       .  A
C21        C3189   1.482       .  S
N22          C23   1.360       .  A
C23          N24   1.361   1_554  A
C23          C57   1.467       .  S
C25          N26   1.361       .  A
C25          N30   1.358   1_545  A
C25        C3133   1.483       .  S
N26          C27   1.362   1_545  A
C27          N28   1.362       .  A
C27          C77   1.473   1_554  S
N28          C29   1.358       .  A
C29          N30   1.357       .  A
C29        C3170   1.479       .  S
C31          N32   1.359       .  A
C31          N36   1.355   1_545  A
C31        C3077   1.476       .  S
N32          C33   1.362   1_545  A
C33          N34   1.361       .  A
C33          C95   1.469       .  S
N34          C35   1.357       .  A
C35          N36   1.354       .  A
C35        C3114   1.485       .  S
C37          N38   1.352       .  A
C37          N42   1.362       .  A
C37        C3049   1.488       .  S
N38          C39   1.353   1_565  A
C39          N40   1.358       .  A
C39        C3021   1.481       .  S
N40          C41   1.362   1_545  A
C41          N42   1.365       .  A
C41          C89   1.473   1_556  S
C43          N44   1.353       .  A
C43          N48   1.360       .  A
C43        C2993   1.483       .  S
N44          C45   1.353   1_565  A
C45          N46   1.357       .  A
C45        C2965   1.474       .  S
N46          C47   1.361   1_545  A
C47          N48   1.364       .  A
C47          C83   1.470       .  S
C49          N50   1.358       .  A
C49          N54   1.353       .  A
C49        C2918   1.483       .  S
N50          C51   1.361       .  A
C51          N52   1.362   1_554  A
N52          C53   1.358       .  A
C53          N54   1.353   1_556  A
C53        C2946   1.485       .  S
C55          N56   1.359       .  A
C55          N60   1.359       .  A
C55        C2853   1.483       .  S
N56          C57   1.359       .  A
C57          N58   1.357   1_554  A
N58          C59   1.357       .  A
C59          N60   1.359   1_556  A
C59        C2881   1.477       .  S
C61          N62   1.357   1_556  A
C61          N66   1.357       .  A
C61        C2825   1.477       .  S
N62          C63   1.357       .  A
C63          N64   1.356       .  A
C63        C2806   1.476       .  S
N64          C65   1.357   1_554  A
C65          N66   1.358       .  A
C67          N68   1.356   1_556  A
C67          N72   1.358       .  A
C67        C2778   1.488       .  S
N68          C69   1.354       .  A
C69          N70   1.359       .  A
C69        C2741   1.488       .  S
N70          C71   1.361       .  A
C71          N72   1.361   1_554  A
C73          N74   1.353   1_545  A
C73          N78   1.363       .  A
C73        C2685   1.493       .  S
N74          C75   1.351       .  A
C75          N76   1.356       .  A
C75        C2722   1.470       .  S
N76          C77   1.361       .  A
C77          N78   1.364   1_565  A
C79          N80   1.354   1_545  A
C79          N84   1.359       .  A
C79        C2629   1.477       .  S
N80          C81   1.355       .  A
C81          N82   1.358       .  A
C81        C2657   1.472       .  S
N82          C83   1.361       .  A
C83          N84   1.363   1_565  A
C85          N86   1.358   1_545  A
C85          N90   1.359       .  A
C85        C2573   1.484       .  S
N86          C87   1.361       .  A
C87          N88   1.359       .  A
C87        C2601   1.491       .  S
N88          C89   1.359       .  A
C89          N90   1.360   1_565  A
C91          N92   1.353       .  A
C91          N96   1.357       .  A
C91        C2545   1.478       .  S
N92          C93   1.354   1_565  A
C93          N94   1.360       .  A
C93        C2517   1.479       .  S
N94          C95   1.361   1_545  A
C95          N96   1.360       .  A
C97          N98   1.360       .  A
C97         N102   1.355       .  A
C97        C2489   1.481       .  S
N98          C99   1.362       .  A
C99         N100   1.358       .  A
C99         C113   1.468   1_545  S
N100        C101   1.358       .  A
C101        N102   1.353       .  A
C101       C2461   1.471       .  S
C103        N104   1.362       .  A
C103        N108   1.360       .  A
C103       C2442   1.492       .  S
N104        C105   1.362       .  A
C105        N106   1.357       .  A
C105        C141   1.470       .  S
N106        C107   1.355       .  A
C107        N108   1.357       .  A
C107       C2405   1.472       .  S
C109        N110   1.352       .  A
C109        N114   1.361       .  A
C109       C2349   1.481       .  S
N110        C111   1.352       .  A
C111        N112   1.356       .  A
C111       C2386   1.473       .  S
N112        C113   1.359       .  A
C113        N114   1.364       .  A
C115        N116   1.355       .  A
C115        N120   1.358       .  A
C115       C2330   1.473       .  S
N116        C117   1.356       .  A
C117        N118   1.361       .  A
C117        C131   1.466       .  S
N118        C119   1.360       .  A
C119        N120   1.359       .  A
C119       C2302   1.481       .  S
C121        N122   1.357       .  A
C121        N126   1.361       .  A
C121       C2274   1.492       .  S
N122        C123   1.355       .  A
C123        N124   1.357       .  A
C123       C2246   1.479       .  S
N124        C125   1.359       .  A
C125        N126   1.364       .  A
C125        C137   1.470   1_565  S
C127        N128   1.356       .  A
C127        N132   1.357       .  A
C127       C2218   1.481       .  S
N128        C129   1.353       .  A
C129        N130   1.358       .  A
C129       C2181   1.478       .  S
N130        C131   1.362       .  A
C131        N132   1.359       .  A
C133        N134   1.357       .  A
C133        N138   1.360       .  A
C133       C2153   1.485       .  S
N134        C135   1.357       .  A
C135        N136   1.358       .  A
C135       C2134   1.478       .  S
N136        C137   1.358       .  A
C137        N138   1.361       .  A
C139        N140   1.360       .  A
C139        N144   1.358       .  A
C139       C2069   1.493       .  S
N140        C141   1.361       .  A
C141        N142   1.359       .  A
N142        C143   1.358       .  A
C143        N144   1.358       .  A
C143       C2097   1.475       .  S
C145        N146   1.358       .  A
C145        N150   1.361       .  A
C145       C2041   1.481       .  S
N146        C147   1.358       .  A
C147        N148   1.358       .  A
C147        C293   1.468       .  S
N148        C149   1.358       .  A
C149        N150   1.360       .  A
C149       C2022   1.477       .  S
C151        N152   1.354       .  A
C151        N156   1.356       .  A
C151       C1994   1.479       .  S
N152        C153   1.355       .  A
C153        N154   1.360       .  A
C153       C1957   1.486       .  S
N154        C155   1.362       .  A
C155        N156   1.361       .  A
C155        C363   1.467       .  S
O157       Zr193   2.428       .  S
O157        C168   1.289       .  A
O158       Zr192   2.443       .  S
O158        C169   1.294       .  A
O159       Zr165   2.438       .  S
O159        C170   1.291       .  A
O160       Zr165   2.442       .  S
O160        C171   1.293       .  A
O161       Zr195   2.437       .  S
O161        C171   1.292       .  A
O162       Zr194   2.439       .  S
O162        C170   1.293       .  A
O163       Zr165   2.422       .  S
O163        C169   1.290       .  A
O164       Zr165   2.446       .  S
O164        C168   1.294       .  A
Zr165       O166   2.341       .  S
Zr165       O167   2.332       .  S
Zr165       O175   2.335       .  S
Zr165       O173   2.347       .  S
O166       Zr192   2.339       .  S
O166       Zr195   2.335       .  S
O167       Zr193   2.335       .  S
O167       Zr194   2.338       .  S
C168       C3357   1.494       .  S
C169       C2209   1.475       .  S
C170       C1966   1.481       .  S
C171       C2265   1.477       .  S
H172        O173   0.978       .  S
O173       Zr192   2.344       .  S
O173       Zr194   2.333       .  S
H174        O175   0.981       .  S
O175       Zr193   2.343       .  S
O175       Zr195   2.340       .  S
O176       Zr192   2.438       .  S
O176        C199   1.292       .  A
O177       Zr193   2.437       .  S
O177        C200   1.292       .  A
O178       Zr194   2.450       .  S
O178        C201   1.294       .  A
O179       Zr195   2.439       .  S
O179        C202   1.292       .  A
O180       Zr195   2.433       .  S
O180        C203   1.291       .  A
O181       Zr194   2.429       .  S
O181        C204   1.291       .  A
O182       Zr196   2.431       .  S
O182        C205   1.291       .  A
O183       Zr196   2.439       .  S
O183        C206   1.292       .  A
O184       Zr194   2.435       .  S
O184        C205   1.291       .  A
O185       Zr195   2.422       .  S
O185        C206   1.291       .  A
O186       Zr192   2.442       .  S
O186        C201   1.292       .  A
O187       Zr193   2.437       .  S
O187        C204   1.293       .  A
O188       Zr193   2.441       .  S
O188        C203   1.293       .  A
O189       Zr192   2.431       .  S
O189        C202   1.291       .  A
O190       Zr196   2.443       .  S
O190        C199   1.293       .  A
O191       Zr196   2.442       .  S
O191        C200   1.293       .  A
Zr192       O198   2.334       .  S
Zr192       O210   2.346       .  S
Zr193       O197   2.328       .  S
Zr193       O208   2.347       .  S
Zr194       O198   2.334       .  S
Zr194       O208   2.351       .  S
Zr195       O197   2.333       .  S
Zr195       O210   2.339       .  S
Zr196       O197   2.333       .  S
Zr196       O198   2.341       .  S
Zr196       O210   2.341       .  S
Zr196       O208   2.341       .  S
C199       C1901   1.478       .  S
C200       C1873   1.480       .  S
C201       C2013   1.483       .  S
C202       C1938   1.471       .  S
C203       C2610   1.480       .  S
C204       C3310   1.480       .  S
C205       C1845   1.467       .  S
C206       C2554   1.487       .  S
H207        O208   0.979       .  S
H209        O210   0.974       .  S
C211        N212   1.353       .  A
C211        N216   1.360       .  A
C211       C1826   1.476       .  S
N212        C213   1.354       .  A
C213        N214   1.359       .  A
C213       C1789   1.479       .  S
N214        C215   1.361       .  A
C215        N216   1.363       .  A
C215        C603   1.473       .  S
C217        N218   1.359       .  A
C217        N222   1.360       .  A
C217       C1761   1.489       .  S
N218        C219   1.361       .  A
C219        N220   1.359       .  A
C219        C287   1.471   1_545  S
N220        C221   1.359       .  A
C221        N222   1.358       .  A
C221       C1742   1.478       .  S
O223       Zr259   2.441       .  S
O223        C234   1.293       .  A
O224       Zr258   2.445       .  S
O224        C235   1.294       .  A
O225       Zr231   2.440       .  S
O225        C236   1.292       .  A
O226       Zr231   2.431       .  S
O226        C237   1.292       .  A
O227       Zr261   2.425       .  S
O227        C237   1.290       .  A
O228       Zr260   2.441       .  S
O228        C236   1.294       .  A
O229       Zr231   2.433       .  S
O229        C235   1.292       .  A
O230       Zr231   2.433       .  S
O230        C234   1.292       .  A
Zr231       O232   2.336       .  S
Zr231       O233   2.334       .  S
Zr231       O241   2.346       .  S
Zr231       O239   2.340       .  S
O232       Zr258   2.338       .  S
O232       Zr261   2.338       .  S
O233       Zr259   2.339       .  S
O233       Zr260   2.335       .  S
C234       C3030   1.480       .  S
C235       C2769   1.482       .  S
C236       C1649   1.489       .  S
C237       C2834   1.474       .  S
H238        O239   0.970       .  S
O239       Zr258   2.343       .  S
O239       Zr260   2.332       .  S
H240        O241   0.963       .  S
O241       Zr259   2.344       .  S
O241       Zr261   2.341       .  S
O242       Zr258   2.444       .  S
O242        C265   1.293       .  A
O243       Zr259   2.448       .  S
O243        C266   1.295       .  A
O244       Zr260   2.431       .  S
O244        C267   1.291       .  A
O245       Zr261   2.438       .  S
O245        C268   1.292       .  A
O246       Zr261   2.435       .  S
O246        C269   1.292       .  A
O247       Zr260   2.420       .  S
O247        C270   1.288       .  A
O248       Zr262   2.435       .  S
O248        C271   1.292       .  A
O249       Zr262   2.430       .  S
O249        C272   1.290       .  A
O250       Zr260   2.431       .  S
O250        C271   1.291       .  A
O251       Zr261   2.438       .  S
O251        C272   1.292       .  A
O252       Zr258   2.441       .  S
O252        C267   1.293       .  A
O253       Zr259   2.437       .  S
O253        C270   1.293       .  A
O254       Zr259   2.438       .  S
O254        C269   1.292       .  A
O255       Zr258   2.445       .  S
O255        C268   1.294       .  A
O256       Zr262   2.428       .  S
O256        C265   1.290       .  A
O257       Zr262   2.432       .  S
O257        C266   1.291       .  A
Zr258       O264   2.338       .  S
Zr258       O276   2.346       .  S
Zr259       O263   2.334       .  S
Zr259       O274   2.339       .  S
Zr260       O264   2.337       .  S
Zr260       O274   2.340       .  S
Zr261       O263   2.331       .  S
Zr261       O276   2.342       .  S
Zr262       O263   2.331       .  S
Zr262       O264   2.336       .  S
Zr262       O276   2.344       .  S
Zr262       O274   2.340       .  S
C265       C1677   1.471       .  S
C266       C1733   1.485       .  S
C267       C1621   1.483       .  S
C268       C1705   1.480       .  S
C269       C2470   1.484       .  S
C270       C2974   1.480       .  S
C271       C1798   1.474       .  S
C272       C2414   1.472       .  S
H273        O274   0.971       .  S
H275        O276   0.975       .  S
C277        N278   1.358       .  A
C277        N282   1.357       .  A
C277       C1910   1.480       .  S
N278        C279   1.359       .  A
C279        N280   1.359       .  A
C279       C1593   1.492       .  S
N280        C281   1.361       .  A
C281        N282   1.358       .  A
C281        C437   1.468       .  S
C283        N284   1.355       .  A
C283        N288   1.361       .  A
C283       C1574   1.484       .  S
N284        C285   1.353       .  A
C285        N286   1.356       .  A
C285       C1929   1.472       .  S
N286        C287   1.361       .  A
C287        N288   1.364       .  A
C289        N290   1.357       .  A
C289        N294   1.359       .  A
C289       C1686   1.491       .  S
N290        C291   1.354       .  A
C291        N292   1.358       .  A
C291       C1537   1.476       .  S
N292        C293   1.359       .  A
C293        N294   1.360       .  A
C295        N296   1.361       .  A
C295        N300   1.360       .  A
C295       C1714   1.483       .  S
N296        C297   1.361       .  A
C297        N298   1.356       .  A
C297        C467   1.467       .  S
N298        C299   1.354       .  A
C299        N300   1.357       .  A
C299       C1509   1.465       .  S
O301       Zr337   2.429       .  S
O301        C312   1.291       .  A
O302       Zr336   2.425       .  S
O302        C313   1.290       .  A
O303       Zr309   2.427       .  S
O303        C314   1.291       .  A
O304       Zr309   2.434       .  S
O304        C315   1.292       .  A
O305       Zr339   2.437       .  S
O305        C315   1.292       .  A
O306       Zr338   2.433       .  S
O306        C314   1.291       .  A
O307       Zr309   2.450       .  S
O307        C313   1.295       .  A
O308       Zr309   2.452       .  S
O308        C312   1.295       .  A
Zr309       O310   2.331       .  S
Zr309       O311   2.338       .  S
Zr309       O319   2.341       .  S
Zr309       O317   2.346       .  S
O310       Zr336   2.336       .  S
O310       Zr339   2.329       .  S
O311       Zr337   2.337       .  S
O311       Zr338   2.336       .  S
C312       C3394   1.484       .  S
C313       C2293   1.479       .  S
C314       C2358   1.473       .  S
C315       C1518   1.483       .  S
H316        O317   0.976       .  S
O317       Zr336   2.344       .  S
O317       Zr338   2.342       .  S
H318        O319   0.968       .  S
O319       Zr337   2.340       .  S
O319       Zr339   2.340       .  S
O320       Zr336   2.441       .  S
O320        C343   1.293       .  A
O321       Zr337   2.434       .  S
O321        C344   1.290       .  A
O322       Zr338   2.444       .  S
O322        C345   1.293       .  A
O323       Zr339   2.431       .  S
O323        C346   1.292       .  A
O324       Zr339   2.431       .  S
O324        C347   1.290       .  A
O325       Zr338   2.442       .  S
O325        C348   1.294       .  A
O326       Zr340   2.445       .  S
O326        C349   1.294       .  A
O327       Zr340   2.437       .  S
O327        C350   1.293       .  A
O328       Zr338   2.431       .  S
O328        C349   1.291       .  A
O329       Zr339   2.433       .  S
O329        C350   1.291       .  A
O330       Zr336   2.433       .  S
O330        C345   1.292       .  A
O331       Zr337   2.441       .  S
O331        C348   1.292       .  A
O332       Zr337   2.433       .  S
O332        C347   1.292       .  A
O333       Zr336   2.448       .  S
O333        C346   1.293       .  A
O334       Zr340   2.427       .  S
O334        C343   1.289       .  A
O335       Zr340   2.438       .  S
O335        C344   1.293       .  A
Zr336       O342   2.336       .  S
Zr336       O354   2.337       .  S
Zr337       O341   2.338       .  S
Zr337       O352   2.338       .  S
Zr338       O342   2.337       .  S
Zr338       O352   2.339       .  S
Zr339       O341   2.343       .  S
Zr339       O354   2.341       .  S
Zr340       O341   2.337       .  S
Zr340       O342   2.337       .  S
Zr340       O354   2.350       .  S
Zr340       O352   2.339       .  S
C343       C1602   1.464       .  S
C344       C1481   1.472       .  S
C345       C1565   1.482       .  S
C346       C1546   1.489       .  S
C347       C3338   1.482       .  S
C348       C3058   1.487       .  S
C349       C3002   1.482       .  S
C350       C1453   1.473       .  S
H351        O352   0.973       .  S
H353        O354   0.977       .  S
C355        N356   1.358       .  A
C355        N360   1.358       .  A
C355       C1406   1.491       .  S
N356        C357   1.356       .  A
C357        N358   1.358       .  A
C357       C1425   1.484       .  S
N358        C359   1.359       .  A
C359        N360   1.359       .  A
C359        C461   1.467       .  S
C361        N362   1.360       .  A
C361        N366   1.356       .  A
C361       C1341   1.481       .  S
N362        C363   1.362       .  A
C363        N364   1.359       .  A
N364        C365   1.356       .  A
C365        N366   1.356       .  A
C365       C1378   1.479       .  S
C367        N368   1.359       .  A
C367        N372   1.356       .  A
C367       C1313   1.486       .  S
N368        C369   1.361       .  A
C369        N370   1.359       .  A
C369        C525   1.466       .  S
N370        C371   1.356       .  A
C371        N372   1.353       .  A
C371       C1854   1.471       .  S
C373        N374   1.353       .  A
C373        N378   1.358       .  A
C373       C1294   1.483       .  S
N374        C375   1.353       .  A
C375        N376   1.361       .  A
C375       C1882   1.490       .  S
N376        C377   1.364       .  A
C377        N378   1.363       .  A
C377        C453   1.472   1_554  S
O379       Zr415   2.444       .  S
O379        C390   1.294       .  A
O380       Zr414   2.429       .  S
O380        C391   1.289       .  A
O381       Zr387   2.436       .  S
O381        C392   1.293       .  A
O382       Zr387   2.445       .  S
O382        C393   1.294       .  A
O383       Zr417   2.433       .  S
O383        C393   1.291       .  A
O384       Zr416   2.430       .  S
O384        C392   1.291       .  A
O385       Zr387   2.447       .  S
O385        C391   1.293       .  A
O386       Zr387   2.436       .  S
O386        C390   1.292       .  A
Zr387       O388   2.331       .  S
Zr387       O389   2.340       .  S
Zr387       O397   2.347       .  S
Zr387       O395   2.340       .  S
O388       Zr414   2.338       .  S
O388       Zr417   2.338       .  S
O389       Zr415   2.335       .  S
O389       Zr416   2.333       .  S
C390       C3161   1.489       .  S
C391       C2862   1.468       .  S
C392       C2909   1.474       .  S
C393       C1285   1.485       .  S
H394        O395   0.976       .  S
O395       Zr414   2.335       .  S
O395       Zr416   2.346       .  S
H396        O397   0.996       .  S
O397       Zr415   2.346       .  S
O397       Zr417   2.347       .  S
O398       Zr414   2.429       .  S
O398        C421   1.291       .  A
O399       Zr415   2.445       .  S
O399        C422   1.293       .  A
O400       Zr416   2.437       .  S
O400        C423   1.292       .  A
O401       Zr417   2.434       .  S
O401        C424   1.292       .  A
O402       Zr417   2.446       .  S
O402        C425   1.294       .  A
O403       Zr416   2.434       .  S
O403        C426   1.293       .  A
O404       Zr418   2.441       .  S
O404        C427   1.292       .  A
O405       Zr418   2.433       .  S
O405        C428   1.292       .  A
O406       Zr416   2.436       .  S
O406        C427   1.292       .  A
O407       Zr417   2.443       .  S
O407        C428   1.293       .  A
O408       Zr414   2.444       .  S
O408        C423   1.294       .  A
O409       Zr415   2.441       .  S
O409        C426   1.292       .  A
O410       Zr415   2.432       .  S
O410        C425   1.291       .  A
O411       Zr414   2.438       .  S
O411        C424   1.293       .  A
O412       Zr418   2.437       .  S
O412        C421   1.291       .  A
O413       Zr418   2.433       .  S
O413        C422   1.293       .  A
Zr414       O420   2.334       .  S
Zr414       O432   2.339       .  S
Zr415       O419   2.342       .  S
Zr415       O430   2.345       .  S
Zr416       O420   2.331       .  S
Zr416       O430   2.340       .  S
Zr417       O419   2.335       .  S
Zr417       O432   2.346       .  S
Zr418       O419   2.339       .  S
Zr418       O420   2.334       .  S
Zr418       O432   2.338       .  S
Zr418       O430   2.341       .  S
C421       C1397   1.471       .  S
C422       C1257   1.484       .  S
C423       C1350   1.484       .  S
C424       C1322   1.482       .  S
C425       C3105   1.486       .  S
C426       C2237   1.493       .  S
C427       C2190   1.481       .  S
C428       C1229   1.484       .  S
H429        O430   0.975       .  S
H431        O432   0.979       .  S
C433        N434   1.352       .  A
C433        N438   1.356       .  A
C433       C1201   1.467       .  S
N434        C435   1.352       .  A
C435        N436   1.360       .  A
C435       C1238   1.480       .  S
N436        C437   1.363       .  A
C437        N438   1.360       .  A
C439        N440   1.358       .  A
C439        N444   1.356       .  A
C439       C1173   1.473       .  S
N440        C441   1.359       .  A
C441        N442   1.361       .  A
C441        C611   1.468   1_565  S
N442        C443   1.358       .  A
C443        N444   1.357       .  A
C443       C1266   1.481       .  S
C445        N446   1.351       .  A
C445        N450   1.358       .  A
C445       C1154   1.475       .  S
N446        C447   1.351       .  A
C447        N448   1.361       .  A
C447       C1462   1.486       .  S
N448        C449   1.363       .  A
C449        N450   1.362       .  A
C449        C591   1.471       .  S
C451        N452   1.360       .  A
C451        N456   1.360       .  A
C451       C1490   1.483       .  S
N452        C453   1.360       .  A
C453        N454   1.359       .  A
N454        C455   1.358       .  A
C455        N456   1.360       .  A
C455       C1117   1.481       .  S
C457        N458   1.351       .  A
C457        N462   1.359       .  A
C457       C1089   1.493       .  S
N458        C459   1.355       .  A
C459        N460   1.358       .  A
C459       C1061   1.491       .  S
N460        C461   1.362       .  A
C461        N462   1.362       .  A
C463        N464   1.354       .  A
C463        N468   1.358       .  A
C463       C1033   1.490       .  S
N464        C465   1.355       .  A
C465        N466   1.358       .  A
C465       C1014   1.488       .  S
N466        C467   1.361       .  A
C467        N468   1.363       .  A
O469       Zr505   2.435       .  S
O469        C480   1.292       .  A
O470       Zr504   2.432       .  S
O470        C481   1.292       .  A
O471       Zr477   2.437       .  S
O471        C482   1.292       .  A
O472       Zr477   2.433       .  S
O472        C483   1.293       .  A
O473       Zr507   2.423       .  S
O473        C483   1.289       .  A
O474       Zr506   2.445       .  S
O474        C482   1.294       .  A
O475       Zr477   2.438       .  S
O475        C481   1.291       .  A
O476       Zr477   2.433       .  S
O476        C480   1.291       .  A
Zr477       O478   2.340       .  S
Zr477       O479   2.332       .  S
Zr477       O487   2.341       .  S
Zr477       O485   2.343       .  S
O478       Zr504   2.338       .  S
O478       Zr507   2.338       .  S
O479       Zr505   2.332       .  S
O479       Zr506   2.333       .  S
C480       C2937   1.474       .  S
C481       C2321   1.488       .  S
C482       C1042   1.481       .  S
C483       C2377   1.474       .  S
H484        O485   0.980       .  S
O485       Zr504   2.344       .  S
O485       Zr506   2.342       .  S
H486        O487   0.971       .  S
O487       Zr505   2.338       .  S
O487       Zr507   2.344       .  S
O488       Zr504   2.439       .  S
O488        C511   1.292       .  A
O489       Zr505   2.429       .  S
O489        C512   1.290       .  A
O490       Zr506   2.440       .  S
O490        C513   1.293       .  A
O491       Zr507   2.446       .  S
O491        C514   1.293       .  A
O492       Zr507   2.424       .  S
O492        C515   1.291       .  A
O493       Zr506   2.444       .  S
O493        C516   1.293       .  A
O494       Zr508   2.427       .  S
O494        C517   1.291       .  A
O495       Zr508   2.447       .  S
O495        C518   1.294       .  A
O496       Zr506   2.436       .  S
O496        C517   1.292       .  A
O497       Zr507   2.426       .  S
O497        C518   1.290       .  A
O498       Zr504   2.431       .  S
O498        C513   1.290       .  A
O499       Zr505   2.428       .  S
O499        C516   1.291       .  A
O500       Zr505   2.442       .  S
O500        C515   1.292       .  A
O501       Zr504   2.434       .  S
O501        C514   1.292       .  A
O502       Zr508   2.418       .  S
O502        C511   1.289       .  A
O503       Zr508   2.441       .  S
O503        C512   1.293       .  A
Zr504       O510   2.332       .  S
Zr504       O522   2.336       .  S
Zr505       O509   2.335       .  S
Zr505       O520   2.340       .  S
Zr506       O510   2.335       .  S
Zr506       O520   2.350       .  S
Zr507       O509   2.335       .  S
Zr507       O522   2.332       .  S
Zr508       O509   2.326       .  S
Zr508       O510   2.338       .  S
Zr508       O522   2.337       .  S
Zr508       O520   2.343       .  S
C511       C1210   1.481       .  S
C512       C1126   1.477       .  S
C513       C1098   1.472       .  S
C514       C1182   1.483       .  S
C515       C2713   1.490       .  S
C516       C2890   1.479       .  S
C517       C1145   1.474       .  S
C518       C2666   1.490       .  S
H519        O520   0.971       .  S
H521        O522   0.965       .  S
C523        N524   1.358       .  A
C523        N528   1.357       .  A
C523        C949   1.484       .  S
N524        C525   1.360       .  A
C525        N526   1.359       .  A
N526        C527   1.356       .  A
C527        N528   1.357       .  A
C527        C977   1.472       .  S
C529        N530   1.358       .  A
C529        N534   1.358       .  A
C529        C921   1.488       .  S
N530        C531   1.359       .  A
C531        N532   1.360       .  A
C531        C893   1.486       .  S
N532        C533   1.360       .  A
C533        N534   1.361       .  A
C533        C599   1.470   1_554  S
O535       Zr571   2.438       .  S
O535        C546   1.293       .  A
O536       Zr570   2.433       .  S
O536        C547   1.291       .  A
O537       Zr543   2.431       .  S
O537        C548   1.291       .  A
O538       Zr543   2.434       .  S
O538        C549   1.291       .  A
O539       Zr573   2.444       .  S
O539        C549   1.293       .  A
O540       Zr572   2.438       .  S
O540        C548   1.293       .  A
O541       Zr543   2.439       .  S
O541        C547   1.293       .  A
O542       Zr543   2.436       .  S
O542        C546   1.292       .  A
Zr543       O544   2.331       .  S
Zr543       O545   2.345       .  S
Zr543       O553   2.341       .  S
Zr543       O551   2.339       .  S
O544       Zr570   2.336       .  S
O544       Zr573   2.335       .  S
O545       Zr571   2.347       .  S
O545       Zr572   2.340       .  S
C546       C3245   1.480       .  S
C547       C2106   1.489       .  S
C548       C1369   1.480       .  S
C549       C2162   1.476       .  S
H550        O551   0.978       .  S
O551       Zr570   2.337       .  S
O551       Zr572   2.340       .  S
H552        O553   0.978       .  S
O553       Zr571   2.346       .  S
O553       Zr573   2.339       .  S
O554       Zr570   2.440       .  S
O554        C577   1.293       .  A
O555       Zr571   2.453       .  S
O555        C578   1.295       .  A
O556       Zr572   2.435       .  S
O556        C579   1.292       .  A
O557       Zr573   2.444       .  S
O557        C580   1.293       .  A
O558       Zr573   2.440       .  S
O558        C581   1.293       .  A
O559       Zr572   2.441       .  S
O559        C582   1.293       .  A
O560       Zr574   2.434       .  S
O560        C583   1.293       .  A
O561       Zr574   2.440       .  S
O561        C584   1.293       .  A
O562       Zr572   2.439       .  S
O562        C583   1.292       .  A
O563       Zr573   2.429       .  S
O563        C584   1.291       .  A
O564       Zr570   2.432       .  S
O564        C579   1.291       .  A
O565       Zr571   2.441       .  S
O565        C582   1.293       .  A
O566       Zr571   2.450       .  S
O566        C581   1.294       .  A
O567       Zr570   2.425       .  S
O567        C580   1.291       .  A
O568       Zr574   2.438       .  S
O568        C577   1.292       .  A
O569       Zr574   2.437       .  S
O569        C578   1.292       .  A
Zr570       O576   2.330       .  S
Zr570       O588   2.338       .  S
Zr571       O575   2.345       .  S
Zr571       O586   2.337       .  S
Zr572       O576   2.336       .  S
Zr572       O586   2.337       .  S
Zr573       O575   2.347       .  S
Zr573       O588   2.347       .  S
Zr574       O575   2.344       .  S
Zr574       O576   2.335       .  S
Zr574       O588   2.340       .  S
Zr574       O586   2.336       .  S
C577        C837   1.477       .  S
C578        C930   1.489       .  S
C579       C1434   1.477       .  S
C580        C865   1.485       .  S
C581       C3142   1.485       .  S
C582       C3198   1.483       .  S
C583        C986   1.491       .  S
C584       C3086   1.480       .  S
H585        O586   0.965       .  S
H587        O588   0.973       .  S
C589        N590   1.360       .  A
C589        N594   1.354       .  A
C589       C1630   1.487       .  S
N590        C591   1.364       .  A
C591        N592   1.363       .  A
N592        C593   1.358       .  A
C593        N594   1.352       .  A
C593        C809   1.484       .  S
C595        N596   1.356       .  A
C595        N600   1.364       .  A
C595       C1658   1.492       .  S
N596        C597   1.355       .  A
C597        N598   1.354       .  A
C597        C781   1.474       .  S
N598        C599   1.358       .  A
C599        N600   1.365       .  A
C601        N602   1.360       .  A
C601        N606   1.354       .  A
C601        C753   1.487       .  S
N602        C603   1.364       .  A
C603        N604   1.362       .  A
N604        C605   1.359       .  A
C605        N606   1.357       .  A
C605        C846   1.494       .  S
C607        N608   1.354       .  A
C607        N612   1.358       .  A
C607        C874   1.482       .  S
N608        C609   1.355       .  A
C609        N610   1.359       .  A
C609        C725   1.478       .  S
N610        C611   1.362       .  A
C611        N612   1.360       .  A
O613       Zr649   2.434       .  S
O613        C624   1.292       .  A
O614       Zr648   2.434       .  S
O614        C625   1.290       .  A
O615       Zr621   2.438       .  S
O615        C626   1.292       .  A
O616       Zr621   2.435       .  S
O616        C627   1.292       .  A
O617       Zr651   2.436       .  S
O617        C627   1.292       .  A
O618       Zr650   2.436       .  S
O618        C626   1.292       .  A
O619       Zr621   2.447       .  S
O619        C625   1.295       .  A
O620       Zr621   2.439       .  S
O620        C624   1.292       .  A
Zr621       O622   2.338       .  S
Zr621       O623   2.340       .  S
Zr621       O631   2.341       .  S
Zr621       O629   2.336       .  S
O622       Zr648   2.343       .  S
O622       Zr651   2.340       .  S
O623       Zr649   2.337       .  S
O623       Zr650   2.337       .  S
C624       C3282   1.478       .  S
C625       C2433   1.485       .  S
C626       C2498   1.484       .  S
C627       C1005   1.475       .  S
H628        O629   0.970       .  S
O629       Zr648   2.337       .  S
O629       Zr650   2.338       .  S
H630        O631   0.969       .  S
O631       Zr649   2.335       .  S
O631       Zr651   2.338       .  S
O632       Zr648   2.440       .  S
O632        C655   1.293       .  A
O633       Zr649   2.432       .  S
O633        C656   1.291       .  A
O634       Zr650   2.433       .  S
O634        C657   1.291       .  A
O635       Zr651   2.448       .  S
O635        C658   1.294       .  A
O636       Zr651   2.442       .  S
O636        C659   1.293       .  A
O637       Zr650   2.437       .  S
O637        C660   1.291       .  A
O638       Zr652   2.445       .  S
O638        C661   1.293       .  A
O639       Zr652   2.439       .  S
O639        C662   1.292       .  A
O640       Zr650   2.437       .  S
O640        C661   1.293       .  A
O641       Zr651   2.438       .  S
O641        C662   1.293       .  A
O642       Zr648   2.434       .  S
O642        C657   1.291       .  A
O643       Zr649   2.431       .  S
O643        C660   1.290       .  A
O644       Zr649   2.442       .  S
O644        C659   1.293       .  A
O645       Zr648   2.417       .  S
O645        C658   1.287       .  A
O646       Zr652   2.448       .  S
O646        C655   1.294       .  A
O647       Zr652   2.435       .  S
O647        C656   1.292       .  A
Zr648       O654   2.336       .  S
Zr648       O666   2.341       .  S
Zr649       O653   2.338       .  S
Zr649       O664   2.340       .  S
Zr650       O654   2.342       .  S
Zr650       O664   2.337       .  S
Zr651       O653   2.340       .  S
Zr651       O666   2.343       .  S
Zr652       O653   2.342       .  S
Zr652       O654   2.342       .  S
Zr652       O666   2.341       .  S
Zr652       O664   2.342       .  S
C655        C762   1.483       .  S
C656        C790   1.483       .  S
C657        C734   1.469       .  S
C658       C1070   1.464       .  S
C659       C3217   1.490       .  S
C660       C2694   1.465       .  S
C661       C2638   1.494       .  S
C662        C818   1.484       .  S
H663        O664   0.978       .  S
H665        O666   0.980       .  S
O667       Zr703   2.427       .  S
O667        C678   1.291       .  A
O668       Zr702   2.426       .  S
O668        C679   1.289       .  A
O669       Zr675   2.443       .  S
O669        C680   1.293       .  A
O670       Zr675   2.440       .  S
O670        C681   1.293       .  A
O671       Zr705   2.432       .  S
O671        C681   1.291       .  A
O672       Zr704   2.421       .  S
O672        C680   1.288       .  A
O673       Zr675   2.453       .  S
O673        C679   1.294       .  A
O674       Zr675   2.438       .  S
O674        C678   1.292       .  A
Zr675       O676   2.337       .  S
Zr675       O677   2.344       .  S
Zr675       O685   2.343       .  S
Zr675       O683   2.345       .  S
O676       Zr702   2.343       .  S
O676       Zr705   2.338       .  S
O677       Zr703   2.341       .  S
O677       Zr704   2.333       .  S
C678       C2797   1.475       .  S
C679       C2078   1.468       .  S
C680       C2125   1.467       .  S
C681       C1985   1.482       .  S
H682        O683   0.968       .  S
O683       Zr702   2.344       .  S
O683       Zr704   2.343       .  S
H684        O685   0.965       .  S
O685       Zr703   2.338       .  S
O685       Zr705   2.329       .  S
O686       Zr702   2.434       .  S
O686        C709   1.291       .  A
O687       Zr703   2.448       .  S
O687        C710   1.294       .  A
O688       Zr704   2.444       .  S
O688        C711   1.293       .  A
O689       Zr705   2.424       .  S
O689        C712   1.291       .  A
O690       Zr705   2.434       .  S
O690        C713   1.291       .  A
O691       Zr704   2.444       .  S
O691        C714   1.292       .  A
O692       Zr706   2.442       .  S
O692        C715   1.293       .  A
O693       Zr706   2.449       .  S
O693        C716   1.295       .  A
O694       Zr704   2.409       .  S
O694        C715   1.288       .  A
O695       Zr705   2.425       .  S
O695        C716   1.289       .  A
O696       Zr702   2.440       .  S
O696        C711   1.292       .  A
O697       Zr703   2.440       .  S
O697        C714   1.292       .  A
O698       Zr703   2.434       .  S
O698        C713   1.291       .  A
O699       Zr702   2.445       .  S
O699        C712   1.292       .  A
O700       Zr706   2.437       .  S
O700        C709   1.292       .  A
O701       Zr706   2.439       .  S
O701        C710   1.292       .  A
Zr702       O708   2.337       .  S
Zr702       O720   2.340       .  S
Zr703       O707   2.341       .  S
Zr703       O718   2.330       .  S
Zr704       O708   2.339       .  S
Zr704       O718   2.334       .  S
Zr705       O707   2.341       .  S
Zr705       O720   2.335       .  S
Zr706       O707   2.338       .  S
Zr706       O708   2.343       .  S
Zr706       O720   2.337       .  S
Zr706       O718   2.340       .  S
C709       C1817   1.470       .  S
C710        C902   1.486       .  S
C711       C1770   1.484       .  S
C712       C2050   1.490       .  S
C713       C2750   1.468       .  S
C714       C2582   1.475       .  S
C715       C2526   1.476       .  S
C716        C958   1.479       .  S
H717        O718   0.966       .  S
H719        O720   0.970       .  S
C721        C722   1.403       .  A
C721        C726   1.404       .  A
C721        H731   1.084       .  S
C722        C727   1.473       .  S
C722        C723   1.404       .  A
C723        C724   1.395       .  A
C723        N728   1.430       .  S
C724        C725   1.405       .  A
C724        H729   1.084       .  S
C725        C726   1.413       .  A
C726        N730   1.431       .  S
C727        C732   1.406       .  A
C727        C736   1.402       .  A
N728        O743   1.262       .  A
N728        O744   1.262       .  A
N730        O741   1.262       .  A
N730        O742   1.262       .  A
C732        C733   1.400       .  A
C732        N737   1.428       .  S
C733        C734   1.403       .  A
C733        H738   1.084       .  S
C734        C735   1.410       .  A
C735        C736   1.398       .  A
C735        N739   1.431       .  S
C736        H740   1.084       .  S
N737        O747   1.261       .  A
N737        O748   1.262       .  A
N739        O745   1.262       .  A
N739        O746   1.262       .  A
C749        C750   1.399       .  A
C749        C754   1.399       .  A
C749        H759   1.084       .  S
C750        C755   1.482       .  S
C750        C751   1.408       .  A
C751        C752   1.407       .  A
C751        N756   1.429       .  S
C752        C753   1.407       .  A
C752        H757   1.084       .  S
C753        C754   1.417       .  A
C754        N758   1.432       .  S
C755        C760   1.407       .  A
C755        C764   1.404       .  A
N756        O771   1.261       .  A
N756        O772   1.262       .  A
N758        O769   1.262       .  A
N758        O770   1.262       .  A
C760        C761   1.399       .  A
C760        N765   1.429       .  S
C761        C762   1.404       .  A
C761        H766   1.084       .  S
C762        C763   1.414       .  A
C763        C764   1.407       .  A
C763        N767   1.431       .  S
C764        H768   1.084       .  S
N765        O775   1.262       .  A
N765        O776   1.262       .  A
N767        O773   1.262       .  A
N767        O774   1.262       .  A
C777        C778   1.403       .  A
C777        C782   1.404       .  A
C777        H787   1.084       .  S
C778        C783   1.477       .  S
C778        C779   1.408       .  A
C779        C780   1.393       .  A
C779        N784   1.430       .  S
C780        C781   1.401       .  A
C780        H785   1.084       .  S
C781        C782   1.413       .  A
C782        N786   1.429       .  S
C783        C788   1.407       .  A
C783        C792   1.400       .  A
N784        O799   1.262       .  A
N784        O800   1.262       .  A
N786        O797   1.262       .  A
N786        O798   1.262       .  A
C788        C789   1.403       .  A
C788        N793   1.428       .  S
C789        C790   1.409       .  A
C789        H794   1.084       .  S
C790        C791   1.414       .  A
C791        C792   1.393       .  A
C791        N795   1.429       .  S
C792        H796   1.084       .  S
N793        O803   1.262       .  A
N793        O804   1.262       .  A
N795        O801   1.262       .  A
N795        O802   1.262       .  A
C805        C806   1.407       .  A
C805        C810   1.406       .  A
C805        H815   1.083       .  S
C806        C811   1.489       .  S
C806        C807   1.410       .  A
C807        C808   1.395       .  A
C807        N812   1.431       .  S
C808        C809   1.405       .  A
C808        H813   1.084       .  S
C809        C810   1.414       .  A
C810        N814   1.431       .  S
C811        C816   1.410       .  A
C811        C820   1.405       .  A
N812        O827   1.262       .  A
N812        O828   1.262       .  A
N814        O825   1.262       .  A
N814        O826   1.262       .  A
C816        C817   1.400       .  A
C816        N821   1.430       .  S
C817        C818   1.406       .  A
C817        H822   1.084       .  S
C818        C819   1.413       .  A
C819        C820   1.399       .  A
C819        N823   1.430       .  S
C820        H824   1.083       .  S
N821        O831   1.262       .  A
N821        O832   1.262       .  A
N823        O829   1.262       .  A
N823        O830   1.262       .  A
C833        C834   1.406       .  A
C833        C838   1.398       .  A
C833        H843   1.083       .  S
C834        C839   1.491       .  S
C834        C835   1.413       .  A
C835        C836   1.404       .  A
C835        N840   1.429       .  S
C836        C837   1.403       .  A
C836        H841   1.084       .  S
C837        C838   1.409       .  A
C838        N842   1.430       .  S
C839        C844   1.410       .  A
C839        C848   1.406       .  A
N840        O855   1.262       .  A
N840        O856   1.262       .  A
N842        O853   1.262       .  A
N842        O854   1.262       .  A
C844        C845   1.395       .  A
C844        N849   1.431       .  S
C845        C846   1.407       .  A
C845        H850   1.083       .  S
C846        C847   1.417       .  A
C847        C848   1.407       .  A
C847        N851   1.429       .  S
C848        H852   1.083       .  S
N849        O859   1.262       .  A
N849        O860   1.262       .  A
N851        O857   1.262       .  A
N851        O858   1.262       .  A
C861        C862   1.405       .  A
C861        C866   1.405       .  A
C861        H871   1.083       .  S
C862        C867   1.486       .  S
C862        C863   1.410       .  A
C863        C864   1.393       .  A
C863        N868   1.431       .  S
C864        C865   1.405       .  A
C864        H869   1.084       .  S
C865        C866   1.415       .  A
C866        N870   1.430       .  S
C867        C872   1.411       .  A
C867        C876   1.403       .  A
N868        O883   1.262       .  A
N868        O884   1.262       .  A
N870        O881   1.262       .  A
N870        O882   1.262       .  A
C872        C873   1.402       .  A
C872        N877   1.430       .  S
C873        C874   1.406       .  A
C873        H878   1.084       .  S
C874        C875   1.414       .  A
C875        C876   1.396       .  A
C875        N879   1.431       .  S
C876        H880   1.084       .  S
N877        O887   1.262       .  A
N877        O888   1.262       .  A
N879        O885   1.262       .  A
N879        O886   1.262       .  A
C889        C890   1.401       .  A
C889        C894   1.396       .  A
C889        H899   1.084       .  S
C890        C895   1.483       .  S
C890        C891   1.411       .  A
C891        C892   1.406       .  A
C891        N896   1.430       .  S
C892        C893   1.407       .  A
C892        H897   1.084       .  S
C893        C894   1.414       .  A
C894        N898   1.429       .  S
C895        C900   1.410       .  A
C895        C904   1.399       .  A
N896        O911   1.262       .  A
N896        O912   1.262       .  A
N898        O909   1.262       .  A
N898        O910   1.262       .  A
C900        C901   1.406       .  A
C900        N905   1.430       .  S
C901        C902   1.409       .  A
C901        H906   1.084       .  S
C902        C903   1.413       .  A
C903        C904   1.395       .  A
C903        N907   1.428       .  S
C904        H908   1.085       .  S
N905        O915   1.262       .  A
N905        O916   1.262       .  A
N907        O913   1.262       .  A
N907        O914   1.262       .  A
C917        C918   1.404       .  A
C917        C922   1.407       .  A
C917        H927   1.083       .  S
C918        C923   1.487       .  S
C918        C919   1.409       .  A
C919        C920   1.397       .  A
C919        N924   1.430       .  S
C920        C921   1.404       .  A
C920        H925   1.083       .  S
C921        C922   1.416       .  A
C922        N926   1.430       .  S
C923        C928   1.409       .  A
C923        C932   1.402       .  A
N924        O939   1.262       .  A
N924        O940   1.262       .  A
N926        O937   1.262       .  A
N926        O938   1.262       .  A
C928        C929   1.404       .  A
C928        N933   1.428       .  S
C929        C930   1.407       .  A
C929        H934   1.084       .  S
C930        C931   1.417       .  A
C931        C932   1.400       .  A
C931        N935   1.430       .  S
C932        H936   1.084       .  S
N933        O943   1.262       .  A
N933        O944   1.261       .  A
N935        O941   1.262       .  A
N935        O942   1.262       .  A
C945        C946   1.400       .  A
C945        C950   1.395       .  A
C945        H955   1.084       .  S
C946        C951   1.480       .  S
C946        C947   1.408       .  A
C947        C948   1.404       .  A
C947        N952   1.429       .  S
C948        C949   1.408       .  A
C948        H953   1.084       .  S
C949        C950   1.414       .  A
C950        N954   1.430       .  S
C951        C956   1.407       .  A
C951        C960   1.404       .  A
N952        O967   1.262       .  A
N952        O968   1.262       .  A
N954        O965   1.262       .  A
N954        O966   1.262       .  A
C956        C957   1.394       .  A
C956        N961   1.429       .  S
C957        C958   1.400       .  A
C957        H962   1.079       .  S
C958        C959   1.415       .  A
C959        C960   1.405       .  A
C959        N963   1.431       .  S
C960        H964   1.084       .  S
N961        O971   1.262       .  A
N961        O972   1.262       .  A
N963        O969   1.262       .  A
N963        O970   1.262       .  A
C973        C974   1.402       .  A
C973        C978   1.397       .  A
C973        H983   1.084       .  S
C974        C979   1.479       .  S
C974        C975   1.409       .  A
C975        C976   1.403       .  A
C975        N980   1.429       .  S
C976        C977   1.403       .  A
C976        H981   1.084       .  S
C977        C978   1.409       .  A
C978        N982   1.431       .  S
C979        C984   1.405       .  A
C979        C988   1.402       .  A
N980        O995   1.262       .  A
N980        O996   1.262       .  A
N982        O993   1.262       .  A
N982        O994   1.262       .  A
C984        C985   1.394       .  A
C984        N989   1.429       .  S
C985        C986   1.408       .  A
C985        H990   1.083       .  S
C986        C987   1.419       .  A
C987        C988   1.404       .  A
C987        N991   1.429       .  S
C988        H992   1.084       .  S
N989        O999   1.262       .  A
N989       O1000   1.262       .  A
N991        O997   1.262       .  A
N991        O998   1.262       .  A
C1001      C1002   1.403       .  A
C1001      C1006   1.396       .  A
C1001      H1011   1.084       .  S
C1002      C1007   1.482       .  S
C1002      C1003   1.409       .  A
C1003      C1004   1.402       .  A
C1003      N1008   1.429       .  S
C1004      C1005   1.405       .  A
C1004      H1009   1.084       .  S
C1005      C1006   1.411       .  A
C1006      N1010   1.430       .  S
C1007      C1012   1.407       .  A
C1007      C1016   1.405   1_655  A
N1008      O1023   1.262   1_655  A
N1008      O1024   1.262       .  A
N1010      O1021   1.262       .  A
N1010      O1022   1.262       .  A
C1012      C1013   1.392       .  A
C1012      N1017   1.430       .  S
C1013      C1014   1.407   1_655  A
C1013      H1018   1.083       .  S
C1014      C1015   1.416       .  A
C1015      C1016   1.405       .  A
C1015      N1019   1.429       .  S
C1016      H1020   1.083       .  S
N1017      O1027   1.262       .  A
N1017      O1028   1.262       .  A
N1019      O1025   1.262       .  A
N1019      O1026   1.262       .  A
C1029      C1030   1.406   1_455  A
C1029      C1034   1.407       .  A
C1029      H1039   1.083       .  S
C1030      C1035   1.487       .  S
C1030      C1031   1.408       .  A
C1031      C1032   1.395       .  A
C1031      N1036   1.431       .  S
C1032      C1033   1.407   1_655  A
C1032      H1037   1.084       .  S
C1033      C1034   1.416       .  A
C1034      N1038   1.429       .  S
C1035      C1040   1.409       .  A
C1035      C1044   1.405       .  A
N1036      O1051   1.262       .  A
N1036      O1052   1.262       .  A
N1038      O1049   1.262       .  A
N1038      O1050   1.262       .  A
C1040      C1041   1.403       .  A
C1040      N1045   1.429       .  S
C1041      C1042   1.407       .  A
C1041      H1046   1.084       .  S
C1042      C1043   1.410       .  A
C1043      C1044   1.399       .  A
C1043      N1047   1.429       .  S
C1044      H1048   1.084       .  S
N1045      O1055   1.262   1_655  A
N1045      O1056   1.262       .  A
N1047      O1053   1.262       .  A
N1047      O1054   1.262       .  A
C1057      C1058   1.404       .  A
C1057      C1062   1.408       .  A
C1057      H1067   1.084       .  S
C1058      C1063   1.474       .  S
C1058      C1059   1.400       .  A
C1059      C1060   1.388       .  A
C1059      N1064   1.431       .  S
C1060      C1061   1.407       .  A
C1060      H1065   1.078       .  S
C1061      C1062   1.419       .  A
C1062      N1066   1.430       .  S
C1063      C1068   1.408       .  A
C1063      C1072   1.404       .  A
N1064      O1079   1.262       .  A
N1064      O1080   1.262       .  A
N1066      O1077   1.262       .  A
N1066      O1078   1.262       .  A
C1068      C1069   1.400       .  A
C1068      N1073   1.432       .  S
C1069      C1070   1.403       .  A
C1069      H1074   1.084       .  S
C1070      C1071   1.406       .  A
C1071      C1072   1.397       .  A
C1071      N1075   1.430       .  S
C1072      H1076   1.084       .  S
N1073      O1083   1.262       .  A
N1073      O1084   1.262       .  A
N1075      O1081   1.262       .  A
N1075      O1082   1.262       .  A
C1085      C1086   1.399       .  A
C1085      C1090   1.393       .  A
C1085      H1095   1.084       .  S
C1086      C1091   1.487       .  S
C1086      C1087   1.410       .  A
C1087      C1088   1.405       .  A
C1087      N1092   1.428       .  S
C1088      C1089   1.410       .  A
C1088      H1093   1.083       .  S
C1089      C1090   1.420       .  A
C1090      N1094   1.429       .  S
C1091      C1096   1.413       .  A
C1091      C1100   1.404       .  A
N1092      O1107   1.262       .  A
N1092      O1108   1.262       .  A
N1094      O1105   1.262       .  A
N1094      O1106   1.262       .  A
C1096      C1097   1.397       .  A
C1096      N1101   1.432       .  S
C1097      C1098   1.400       .  A
C1097      H1102   1.084       .  S
C1098      C1099   1.412       .  A
C1099      C1100   1.404       .  A
C1099      N1103   1.432       .  S
C1100      H1104   1.082       .  S
N1101      O1111   1.262       .  A
N1101      O1112   1.262       .  A
N1103      O1109   1.262       .  A
N1103      O1110   1.262       .  A
C1113      C1114   1.396       .  A
C1113      C1118   1.399       .  A
C1113      H1123   1.084       .  S
C1114      C1119   1.472       .  S
C1114      C1115   1.406       .  A
C1115      C1116   1.402       .  A
C1115      N1120   1.429       .  S
C1116      C1117   1.407       .  A
C1116      H1121   1.084       .  S
C1117      C1118   1.414       .  A
C1118      N1122   1.431       .  S
C1119      C1124   1.408       .  A
C1119      C1128   1.399       .  A
N1120      O1135   1.262       .  A
N1120      O1136   1.262       .  A
N1122      O1133   1.262       .  A
N1122      O1134   1.263       .  A
C1124      C1125   1.400       .  A
C1124      N1129   1.430       .  S
C1125      C1126   1.406       .  A
C1125      H1130   1.084       .  S
C1126      C1127   1.411       .  A
C1127      C1128   1.398       .  A
C1127      N1131   1.428       .  S
C1128      H1132   1.084       .  S
N1129      O1139   1.262       .  A
N1129      O1140   1.262       .  A
N1131      O1137   1.262       .  A
N1131      O1138   1.262       .  A
C1141      C1142   1.400       .  A
C1141      C1146   1.397       .  A
C1141      H1151   1.084       .  S
C1142      C1147   1.471       .  S
C1142      C1143   1.405       .  A
C1143      C1144   1.399       .  A
C1143      N1148   1.429       .  S
C1144      C1145   1.405       .  A
C1144      H1149   1.084       .  S
C1145      C1146   1.413       .  A
C1146      N1150   1.432       .  S
C1147      C1152   1.403       .  A
C1147      C1156   1.403       .  A
N1148      O1163   1.262       .  A
N1148      O1164   1.262       .  A
N1150      O1161   1.262       .  A
N1150      O1162   1.262       .  A
C1152      C1153   1.392       .  A
C1152      N1157   1.429       .  S
C1153      C1154   1.405       .  A
C1153      H1158   1.084       .  S
C1154      C1155   1.413       .  A
C1155      C1156   1.405       .  A
C1155      N1159   1.432       .  S
C1156      H1160   1.084       .  S
N1157      O1167   1.262       .  A
N1157      O1168   1.262       .  A
N1159      O1165   1.262       .  A
N1159      O1166   1.262       .  A
C1169      C1170   1.403       .  A
C1169      C1174   1.403       .  A
C1169      H1179   1.084       .  S
C1170      C1175   1.477       .  S
C1170      C1171   1.407       .  A
C1171      C1172   1.398       .  A
C1171      N1176   1.430       .  S
C1172      C1173   1.403       .  A
C1172      H1177   1.084       .  S
C1173      C1174   1.410       .  A
C1174      N1178   1.430       .  S
C1175      C1180   1.406       .  A
C1175      C1184   1.399       .  A
N1176      O1191   1.262       .  A
N1176      O1192   1.262       .  A
N1178      O1189   1.262       .  A
N1178      O1190   1.262       .  A
C1180      C1181   1.404       .  A
C1180      N1185   1.428       .  S
C1181      C1182   1.408       .  A
C1181      H1186   1.084       .  S
C1182      C1183   1.415       .  A
C1183      C1184   1.397       .  A
C1183      N1187   1.430       .  S
C1184      H1188   1.084       .  S
N1185      O1195   1.262       .  A
N1185      O1196   1.262       .  A
N1187      O1193   1.262       .  A
N1187      O1194   1.262       .  A
C1197      C1198   1.404       .  A
C1197      C1202   1.401       .  A
C1197      H1207   1.084       .  S
C1198      C1203   1.473       .  S
C1198      C1199   1.406       .  A
C1199      C1200   1.394       .  A
C1199      N1204   1.430       .  S
C1200      C1201   1.402       .  A
C1200      H1205   1.084       .  S
C1201      C1202   1.409       .  A
C1202      N1206   1.431       .  S
C1203      C1208   1.403       .  A
C1203      C1212   1.402       .  A
N1204      O1219   1.262       .  A
N1204      O1220   1.262       .  A
N1206      O1217   1.262       .  A
N1206      O1218   1.262       .  A
C1208      C1209   1.396       .  A
C1208      N1213   1.429       .  S
C1209      C1210   1.409       .  A
C1209      H1214   1.084       .  S
C1210      C1211   1.415       .  A
C1211      C1212   1.398       .  A
C1211      N1215   1.433       .  S
C1212      H1216   1.084       .  S
N1213      O1223   1.262       .  A
N1213      O1224   1.262       .  A
N1215      O1221   1.262       .  A
N1215      O1222   1.262       .  A
C1225      C1226   1.403       .  A
C1225      C1230   1.403       .  A
C1225      H1235   1.084       .  S
C1226      C1231   1.484       .  S
C1226      C1227   1.410       .  A
C1227      C1228   1.396       .  A
C1227      N1232   1.430       .  S
C1228      C1229   1.405       .  A
C1228      H1233   1.084       .  S
C1229      C1230   1.416       .  A
C1230      N1234   1.431       .  S
C1231      C1236   1.410       .  A
C1231      C1240   1.402       .  A
N1232      O1247   1.262       .  A
N1232      O1248   1.262       .  A
N1234      O1245   1.262       .  A
N1234      O1246   1.262       .  A
C1236      C1237   1.402       .  A
C1236      N1241   1.429       .  S
C1237      C1238   1.404       .  A
C1237      H1242   1.084       .  S
C1238      C1239   1.414       .  A
C1239      C1240   1.397       .  A
C1239      N1243   1.430       .  S
C1240      H1244   1.084       .  S
N1241      O1251   1.262       .  A
N1241      O1252   1.262       .  A
N1243      O1249   1.262       .  A
N1243      O1250   1.262       .  A
C1253      C1254   1.403       .  A
C1253      C1258   1.406       .  A
C1253      H1263   1.084       .  S
C1254      C1259   1.480       .  S
C1254      C1255   1.406       .  A
C1255      C1256   1.394       .  A
C1255      N1260   1.429       .  S
C1256      C1257   1.405       .  A
C1256      H1261   1.084       .  S
C1257      C1258   1.416       .  A
C1258      N1262   1.430       .  S
C1259      C1264   1.408       .  A
C1259      C1268   1.401       .  A
N1260      O1275   1.262       .  A
N1260      O1276   1.262       .  A
N1262      O1273   1.262       .  A
N1262      O1274   1.262       .  A
C1264      C1265   1.403       .  A
C1264      N1269   1.428       .  S
C1265      C1266   1.406       .  A
C1265      H1270   1.084       .  S
C1266      C1267   1.413       .  A
C1267      C1268   1.398       .  A
C1267      N1271   1.431       .  S
C1268      H1272   1.084       .  S
N1269      O1279   1.262       .  A
N1269      O1280   1.262       .  A
N1271      O1277   1.262       .  A
N1271      O1278   1.262       .  A
C1281      C1282   1.404       .  A
C1281      C1286   1.398       .  A
C1281      H1291   1.084       .  S
C1282      C1287   1.487       .  S
C1282      C1283   1.409       .  A
C1283      C1284   1.403       .  A
C1283      N1288   1.429       .  S
C1284      C1285   1.407       .  A
C1284      H1289   1.084       .  S
C1285      C1286   1.414       .  A
C1286      N1290   1.430       .  S
C1287      C1292   1.410       .  A
C1287      C1296   1.406       .  A
N1288      O1303   1.262       .  A
N1288      O1304   1.262       .  A
N1290      O1301   1.262       .  A
N1290      O1302   1.262       .  A
C1292      C1293   1.396       .  A
C1292      N1297   1.432       .  S
C1293      C1294   1.405       .  A
C1293      H1298   1.084       .  S
C1294      C1295   1.412       .  A
C1295      C1296   1.406       .  A
C1295      N1299   1.429       .  S
C1296      H1300   1.083       .  S
N1297      O1307   1.262       .  A
N1297      O1308   1.262       .  A
N1299      O1305   1.262       .  A
N1299      O1306   1.262       .  A
C1309      C1310   1.405       .  A
C1309      C1314   1.403       .  A
C1309      H1319   1.083       .  S
C1310      C1315   1.485       .  S
C1310      C1311   1.410       .  A
C1311      C1312   1.395       .  A
C1311      N1316   1.432       .  S
C1312      C1313   1.406       .  A
C1312      H1317   1.084       .  S
C1313      C1314   1.415       .  A
C1314      N1318   1.429       .  S
C1315      C1320   1.409       .  A
C1315      C1324   1.404       .  A
N1316      O1331   1.262       .  A
N1316      O1332   1.262       .  A
N1318      O1329   1.262       .  A
N1318      O1330   1.262       .  A
C1320      C1321   1.400       .  A
C1320      N1325   1.429       .  S
C1321      C1322   1.406       .  A
C1321      H1326   1.084       .  S
C1322      C1323   1.413       .  A
C1323      C1324   1.398       .  A
C1323      N1327   1.431       .  S
C1324      H1328   1.084       .  S
N1325      O1335   1.262       .  A
N1325      O1336   1.262       .  A
N1327      O1333   1.262       .  A
N1327      O1334   1.262       .  A
C1337      C1338   1.400       .  A
C1337      C1342   1.399       .  A
C1337      H1347   1.084       .  S
C1338      C1343   1.480       .  S
C1338      C1339   1.407   1_655  A
C1339      C1340   1.403       .  A
C1339      N1344   1.428       .  S
C1340      C1341   1.406       .  A
C1340      H1345   1.084       .  S
C1341      C1342   1.415   1_455  A
C1342      N1346   1.433       .  S
C1343      C1348   1.407       .  A
C1343      C1352   1.401       .  A
N1344      O1359   1.262       .  A
N1344      O1360   1.262       .  A
N1346      O1357   1.262       .  A
N1346      O1358   1.262       .  A
C1348      C1349   1.399       .  A
C1348      N1353   1.430       .  S
C1349      C1350   1.406       .  A
C1349      H1354   1.084       .  S
C1350      C1351   1.416       .  A
C1351      C1352   1.403       .  A
C1351      N1355   1.430       .  S
C1352      H1356   1.084       .  S
N1353      O1363   1.262       .  A
N1353      O1364   1.262       .  A
N1355      O1361   1.262       .  A
N1355      O1362   1.262       .  A
C1365      C1366   1.403       .  A
C1365      C1370   1.403       .  A
C1365      H1375   1.084       .  S
C1366      C1371   1.480       .  S
C1366      C1367   1.408       .  A
C1367      C1368   1.394       .  A
C1367      N1372   1.430       .  S
C1368      C1369   1.404       .  A
C1368      H1373   1.084       .  S
C1369      C1370   1.415       .  A
C1370      N1374   1.430       .  S
C1371      C1376   1.409   1_655  A
C1371      C1380   1.401       .  A
N1372      O1387   1.262       .  A
N1372      O1388   1.262       .  A
N1374      O1385   1.262       .  A
N1374      O1386   1.262       .  A
C1376      C1377   1.403       .  A
C1376      N1381   1.429       .  S
C1377      C1378   1.406       .  A
C1377      H1382   1.084       .  S
C1378      C1379   1.412   1_455  A
C1379      C1380   1.395       .  A
C1379      N1383   1.430       .  S
C1380      H1384   1.084       .  S
N1381      O1391   1.262       .  A
N1381      O1392   1.262       .  A
N1383      O1389   1.262       .  A
N1383      O1390   1.262       .  A
C1393      C1394   1.404       .  A
C1393      C1398   1.396       .  A
C1393      H1403   1.084       .  S
C1394      C1399   1.483       .  S
C1394      C1395   1.410       .  A
C1395      C1396   1.401       .  A
C1395      N1400   1.429       .  S
C1396      C1397   1.403       .  A
C1396      H1401   1.084       .  S
C1397      C1398   1.410       .  A
C1398      N1402   1.431       .  S
C1399      C1404   1.408       .  A
C1399      C1408   1.403       .  A
N1400      O1415   1.262       .  A
N1400      O1416   1.262       .  A
N1402      O1413   1.262       .  A
N1402      O1414   1.262       .  A
C1404      C1405   1.395       .  A
C1404      N1409   1.432       .  S
C1405      C1406   1.407       .  A
C1405      H1410   1.082       .  S
C1406      C1407   1.419       .  A
C1407      C1408   1.405       .  A
C1407      N1411   1.430       .  S
C1408      H1412   1.084       .  S
N1409      O1419   1.262       .  A
N1409      O1420   1.262       .  A
N1411      O1417   1.262       .  A
N1411      O1418   1.262       .  A
C1421      C1422   1.400       .  A
C1421      C1426   1.396       .  A
C1421      H1431   1.084       .  S
C1422      C1427   1.478       .  S
C1422      C1423   1.407       .  A
C1423      C1424   1.402       .  A
C1423      N1428   1.428       .  S
C1424      C1425   1.408       .  A
C1424      H1429   1.083       .  S
C1425      C1426   1.415       .  A
C1426      N1430   1.430       .  S
C1427      C1432   1.408       .  A
C1427      C1436   1.402       .  A
N1428      O1443   1.262       .  A
N1428      O1444   1.262       .  A
N1430      O1441   1.262       .  A
N1430      O1442   1.262       .  A
C1432      C1433   1.395       .  A
C1432      N1437   1.430       .  S
C1433      C1434   1.403       .  A
C1433      H1438   1.084       .  S
C1434      C1435   1.414       .  A
C1435      C1436   1.403       .  A
C1435      N1439   1.431       .  S
C1436      H1440   1.084       .  S
N1437      O1447   1.262       .  A
N1437      O1448   1.262       .  A
N1439      O1445   1.262       .  A
N1439      O1446   1.262       .  A
C1449      C1450   1.400       .  A
C1449      C1454   1.400       .  A
C1449      H1459   1.084       .  S
C1450      C1455   1.477       .  S
C1450      C1451   1.409       .  A
C1451      C1452   1.397       .  A
C1451      N1456   1.430       .  S
C1452      C1453   1.402       .  A
C1452      H1457   1.084       .  S
C1453      C1454   1.414       .  A
C1454      N1458   1.433       .  S
C1455      C1460   1.407       .  A
C1455      C1464   1.398       .  A
N1456      O1471   1.262       .  A
N1456      O1472   1.262       .  A
N1458      O1469   1.262       .  A
N1458      O1470   1.263       .  A
C1460      C1461   1.402       .  A
C1460      N1465   1.428       .  S
C1461      C1462   1.407       .  A
C1461      H1466   1.083       .  S
C1462      C1463   1.419       .  A
C1463      C1464   1.395       .  A
C1463      N1467   1.430       .  S
C1464      H1468   1.084       .  S
N1465      O1475   1.262       .  A
N1465      O1476   1.262       .  A
N1467      O1473   1.262       .  A
N1467      O1474   1.262       .  A
C1477      C1478   1.404       .  A
C1477      C1482   1.402       .  A
C1477      H1487   1.084       .  S
C1478      C1483   1.475       .  S
C1478      C1479   1.407       .  A
C1479      C1480   1.398       .  A
C1479      N1484   1.430       .  S
C1480      C1481   1.402       .  A
C1480      H1485   1.084       .  S
C1481      C1482   1.410       .  A
C1482      N1486   1.430       .  S
C1483      C1488   1.407       .  A
C1483      C1492   1.396       .  A
N1484      O1499   1.262       .  A
N1484      O1500   1.262       .  A
N1486      O1497   1.262       .  A
N1486      O1498   1.262       .  A
C1488      C1489   1.404       .  A
C1488      N1493   1.429       .  S
C1489      C1490   1.408       .  A
C1489      H1494   1.084       .  S
C1490      C1491   1.415       .  A
C1491      C1492   1.398       .  A
C1491      N1495   1.431       .  S
C1492      H1496   1.084       .  S
N1493      O1503   1.262       .  A
N1493      O1504   1.262       .  A
N1495      O1501   1.262       .  A
N1495      O1502   1.263       .  A
C1505      C1506   1.404       .  A
C1505      C1510   1.400       .  A
C1505      H1515   1.084       .  S
C1506      C1511   1.477       .  S
C1506      C1507   1.408       .  A
C1507      C1508   1.399       .  A
C1507      N1512   1.429       .  S
C1508      C1509   1.401       .  A
C1508      H1513   1.084       .  S
C1509      C1510   1.405       .  A
C1510      N1514   1.429       .  S
C1511      C1516   1.407       .  A
C1511      C1520   1.401       .  A
N1512      O1527   1.262       .  A
N1512      O1528   1.262       .  A
N1514      O1525   1.262       .  A
N1514      O1526   1.262       .  A
C1516      C1517   1.399       .  A
C1516      N1521   1.429       .  S
C1517      C1518   1.407       .  A
C1517      H1522   1.084       .  S
C1518      C1519   1.415       .  A
C1519      C1520   1.399       .  A
C1519      N1523   1.429       .  S
C1520      H1524   1.084       .  S
N1521      O1531   1.262       .  A
N1521      O1532   1.262       .  A
N1523      O1529   1.262       .  A
N1523      O1530   1.262       .  A
C1533      C1534   1.401       .  A
C1533      C1538   1.400       .  A
C1533      H1543   1.084       .  S
C1534      C1539   1.477       .  S
C1534      C1535   1.409       .  A
C1535      C1536   1.400       .  A
C1535      N1540   1.431       .  S
C1536      C1537   1.404       .  A
C1536      H1541   1.084       .  S
C1537      C1538   1.411       .  A
C1538      N1542   1.428       .  S
C1539      C1544   1.407       .  A
C1539      C1548   1.400       .  A
N1540      O1555   1.262       .  A
N1540      O1556   1.262       .  A
N1542      O1553   1.262       .  A
N1542      O1554   1.262       .  A
C1544      C1545   1.397       .  A
C1544      N1549   1.430       .  S
C1545      C1546   1.407       .  A
C1545      H1550   1.082       .  S
C1546      C1547   1.417       .  A
C1547      C1548   1.404       .  A
C1547      N1551   1.428       .  S
C1548      H1552   1.084       .  S
N1549      O1559   1.262       .  A
N1549      O1560   1.262       .  A
N1551      O1557   1.261       .  A
N1551      O1558   1.262       .  A
C1561      C1562   1.403       .  A
C1561      C1566   1.405       .  A
C1561      H1571   1.084       .  S
C1562      C1567   1.483       .  S
C1562      C1563   1.409       .  A
C1563      C1564   1.397       .  A
C1563      N1568   1.429       .  S
C1564      C1565   1.404       .  A
C1564      H1569   1.084       .  S
C1565      C1566   1.415       .  A
C1566      N1570   1.430       .  S
C1567      C1572   1.409       .  A
C1567      C1576   1.400       .  A
N1568      O1583   1.262       .  A
N1568      O1584   1.262       .  A
N1570      O1581   1.262       .  A
N1570      O1582   1.262       .  A
C1572      C1573   1.405       .  A
C1572      N1577   1.428       .  S
C1573      C1574   1.406       .  A
C1573      H1578   1.084       .  S
C1574      C1575   1.415       .  A
C1575      C1576   1.397       .  A
C1575      N1579   1.431       .  S
C1576      H1580   1.084       .  S
N1577      O1587   1.262       .  A
N1577      O1588   1.262       .  A
N1579      O1585   1.262       .  A
N1579      O1586   1.262       .  A
C1589      C1590   1.400       .  A
C1589      C1594   1.405       .  A
C1589      H1599   1.084       .  S
C1590      C1595   1.475       .  S
C1590      C1591   1.403       .  A
C1591      C1592   1.396       .  A
C1591      N1596   1.429       .  S
C1592      C1593   1.408       .  A
C1592      H1597   1.082       .  S
C1593      C1594   1.420       .  A
C1594      N1598   1.430       .  S
C1595      C1600   1.408       .  A
C1595      C1604   1.403       .  A
N1596      O1611   1.262       .  A
N1596      O1612   1.262       .  A
N1598      O1609   1.262       .  A
N1598      O1610   1.262       .  A
C1600      C1601   1.399       .  A
C1600      N1605   1.428       .  S
C1601      C1602   1.400       .  A
C1601      H1606   1.084       .  S
C1602      C1603   1.406       .  A
C1603      C1604   1.400       .  A
C1603      N1607   1.430       .  S
C1604      H1608   1.084       .  S
N1605      O1615   1.262       .  A
N1605      O1616   1.262       .  A
N1607      O1613   1.262       .  A
N1607      O1614   1.262       .  A
C1617      C1618   1.402       .  A
C1617      C1622   1.397       .  A
C1617      H1627   1.084       .  S
C1618      C1623   1.482       .  S
C1618      C1619   1.408       .  A
C1619      C1620   1.402       .  A
C1619      N1624   1.429       .  S
C1620      C1621   1.407       .  A
C1620      H1625   1.084       .  S
C1621      C1622   1.414       .  A
C1622      N1626   1.430       .  S
C1623      C1628   1.406       .  A
C1623      C1632   1.405       .  A
N1624      O1639   1.262       .  A
N1624      O1640   1.262       .  A
N1626      O1637   1.262       .  A
N1626      O1638   1.262       .  A
C1628      C1629   1.393       .  A
C1628      N1633   1.430       .  S
C1629      C1630   1.407       .  A
C1629      H1634   1.084       .  S
C1630      C1631   1.414       .  A
C1631      C1632   1.406       .  A
C1631      N1635   1.429       .  S
C1632      H1636   1.084       .  S
N1633      O1643   1.262       .  A
N1633      O1644   1.262       .  A
N1635      O1641   1.262       .  A
N1635      O1642   1.262       .  A
C1645      C1646   1.406       .  A
C1645      C1650   1.406       .  A
C1645      H1655   1.083       .  S
C1646      C1651   1.495       .  S
C1646      C1647   1.413       .  A
C1647      C1648   1.398       .  A
C1647      N1652   1.431       .  S
C1648      C1649   1.404       .  A
C1648      H1653   1.084       .  S
C1649      C1650   1.416       .  A
C1650      N1654   1.431       .  S
C1651      C1656   1.414       .  A
C1651      C1660   1.403       .  A
N1652      O1667   1.262       .  A
N1652      O1668   1.262       .  A
N1654      O1665   1.262       .  A
N1654      O1666   1.262       .  A
C1656      C1657   1.407       .  A
C1656      N1661   1.430       .  S
C1657      C1658   1.407       .  A
C1657      H1662   1.083       .  S
C1658      C1659   1.417       .  A
C1659      C1660   1.398       .  A
C1659      N1663   1.430       .  S
C1660      H1664   1.083       .  S
N1661      O1671   1.262       .  A
N1661      O1672   1.262       .  A
N1663      O1669   1.262       .  A
N1663      O1670   1.262       .  A
C1673      C1674   1.404       .  A
C1673      C1678   1.400       .  A
C1673      H1683   1.084       .  S
C1674      C1679   1.477       .  S
C1674      C1675   1.407       .  A
C1675      C1676   1.400       .  A
C1675      N1680   1.431       .  S
C1676      C1677   1.404       .  A
C1676      H1681   1.084       .  S
C1677      C1678   1.408       .  A
C1678      N1682   1.430       .  S
C1679      C1684   1.404       .  A
C1679      C1688   1.401       .  A
N1680      O1695   1.262       .  A
N1680      O1696   1.262       .  A
N1682      O1693   1.262       .  A
N1682      O1694   1.262       .  A
C1684      C1685   1.396       .  A
C1684      N1689   1.432       .  S
C1685      C1686   1.409       .  A
C1685      H1690   1.083       .  S
C1686      C1687   1.419       .  A
C1687      C1688   1.404       .  A
C1687      N1691   1.430       .  S
C1688      H1692   1.084       .  S
N1689      O1699   1.262       .  A
N1689      O1700   1.262       .  A
N1691      O1697   1.262       .  A
N1691      O1698   1.262       .  A
C1701      C1702   1.401       .  A
C1701      C1706   1.403       .  A
C1701      H1711   1.084       .  S
C1702      C1707   1.479       .  S
C1702      C1703   1.408       .  A
C1703      C1704   1.400       .  A
C1703      N1708   1.430       .  S
C1704      C1705   1.403       .  A
C1704      H1709   1.084       .  S
C1705      C1706   1.414       .  A
C1706      N1710   1.429       .  S
C1707      C1712   1.406       .  A
C1707      C1716   1.401       .  A
N1708      O1723   1.262       .  A
N1708      O1724   1.262       .  A
N1710      O1721   1.262       .  A
N1710      O1722   1.262       .  A
C1712      C1713   1.403       .  A
C1712      N1717   1.428       .  S
C1713      C1714   1.406       .  A
C1713      H1718   1.084       .  S
C1714      C1715   1.413       .  A
C1715      C1716   1.402       .  A
C1715      N1719   1.432       .  S
C1716      H1720   1.084       .  S
N1717      O1727   1.262       .  A
N1717      O1728   1.262       .  A
N1719      O1725   1.262       .  A
N1719      O1726   1.262       .  A
C1729      C1730   1.400       .  A
C1729      C1734   1.401       .  A
C1729      H1739   1.084       .  S
C1730      C1735   1.477       .  S
C1730      C1731   1.407       .  A
C1731      C1732   1.400       .  A
C1731      N1736   1.428       .  S
C1732      C1733   1.406       .  A
C1732      H1737   1.084       .  S
C1733      C1734   1.417       .  A
C1734      N1738   1.430       .  S
C1735      C1740   1.406       .  A
C1735      C1744   1.401       .  A
N1736      O1751   1.262       .  A
N1736      O1752   1.262       .  A
N1738      O1749   1.262       .  A
N1738      O1750   1.262       .  A
C1740      C1741   1.402       .  A
C1740      N1745   1.428       .  S
C1741      C1742   1.404       .  A
C1741      H1746   1.084       .  S
C1742      C1743   1.412       .  A
C1743      C1744   1.402       .  A
C1743      N1747   1.431       .  S
C1744      H1748   1.084       .  S
N1745      O1755   1.262       .  A
N1745      O1756   1.261       .  A
N1747      O1753   1.262       .  A
N1747      O1754   1.262       .  A
C1757      C1758   1.401       .  A
C1757      C1762   1.405       .  A
C1757      H1767   1.084       .  S
C1758      C1763   1.482       .  S
C1758      C1759   1.408       .  A
C1759      C1760   1.398       .  A
C1759      N1764   1.430       .  S
C1760      C1761   1.405       .  A
C1760      H1765   1.084       .  S
C1761      C1762   1.417       .  A
C1762      N1766   1.428       .  S
C1763      C1768   1.409       .  A
C1763      C1772   1.399       .  A
N1764      O1779   1.262       .  A
N1764      O1780   1.262       .  A
N1766      O1777   1.262       .  A
N1766      O1778   1.262       .  A
C1768      C1769   1.407       .  A
C1768      N1773   1.428       .  S
C1769      C1770   1.409       .  A
C1769      H1774   1.084       .  S
C1770      C1771   1.412       .  A
C1771      C1772   1.395       .  A
C1771      N1775   1.427       .  S
C1772      H1776   1.084       .  S
N1773      O1783   1.262       .  A
N1773      O1784   1.262       .  A
N1775      O1781   1.262       .  A
N1775      O1782   1.261       .  A
C1785      C1786   1.398       .  A
C1785      C1790   1.396       .  A
C1785      H1795   1.084       .  S
C1786      C1791   1.474       .  S
C1786      C1787   1.407       .  A
C1787      C1788   1.402       .  A
C1787      N1792   1.428       .  S
C1788      C1789   1.405       .  A
C1788      H1793   1.084       .  S
C1789      C1790   1.415       .  A
C1790      N1794   1.430       .  S
C1791      C1796   1.407       .  A
C1791      C1800   1.401       .  A
N1792      O1807   1.262       .  A
N1792      O1808   1.262       .  A
N1794      O1805   1.262       .  A
N1794      O1806   1.262       .  A
C1796      C1797   1.396       .  A
C1796      N1801   1.429       .  S
C1797      C1798   1.403       .  A
C1797      H1802   1.084       .  S
C1798      C1799   1.413       .  A
C1799      C1800   1.401       .  A
C1799      N1803   1.430       .  S
C1800      H1804   1.084       .  S
N1801      O1811   1.262       .  A
N1801      O1812   1.262       .  A
N1803      O1809   1.262       .  A
N1803      O1810   1.261       .  A
C1813      C1814   1.402       .  A
C1813      C1818   1.401       .  A
C1813      H1823   1.084       .  S
C1814      C1819   1.476       .  S
C1814      C1815   1.409       .  A
C1815      C1816   1.400       .  A
C1815      N1820   1.429       .  S
C1816      C1817   1.402       .  A
C1816      H1821   1.084       .  S
C1817      C1818   1.410       .  A
C1818      N1822   1.431       .  S
C1819      C1824   1.407       .  A
C1819      C1828   1.400       .  A
N1820      O1835   1.262       .  A
N1820      O1836   1.262       .  A
N1822      O1833   1.262       .  A
N1822      O1834   1.262       .  A
C1824      C1825   1.402       .  A
C1824      N1829   1.428       .  S
C1825      C1826   1.403       .  A
C1825      H1830   1.084       .  S
C1826      C1827   1.413       .  A
C1827      C1828   1.399       .  A
C1827      N1831   1.430       .  S
C1828      H1832   1.084       .  S
N1829      O1839   1.262       .  A
N1829      O1840   1.262       .  A
N1831      O1837   1.262       .  A
N1831      O1838   1.262       .  A
C1841      C1842   1.401       .  A
C1841      C1846   1.399       .  A
C1841      H1851   1.084       .  S
C1842      C1847   1.474       .  S
C1842      C1843   1.409       .  A
C1843      C1844   1.398       .  A
C1843      N1848   1.430       .  S
C1844      C1845   1.401       .  A
C1844      H1849   1.084       .  S
C1845      C1846   1.409       .  A
C1846      N1850   1.429       .  S
C1847      C1852   1.407       .  A
C1847      C1856   1.402       .  A
N1848      O1863   1.262       .  A
N1848      O1864   1.262       .  A
N1850      O1861   1.262       .  A
N1850      O1862   1.262       .  A
C1852      C1853   1.396       .  A
C1852      N1857   1.429       .  S
C1853      C1854   1.403       .  A
C1853      H1858   1.084       .  S
C1854      C1855   1.410       .  A
C1855      C1856   1.401       .  A
C1855      N1859   1.429       .  S
C1856      H1860   1.084       .  S
N1857      O1867   1.262       .  A
N1857      O1868   1.262       .  A
N1859      O1865   1.262       .  A
N1859      O1866   1.262       .  A
C1869      C1870   1.404       .  A
C1869      C1874   1.405       .  A
C1869      H1879   1.083       .  S
C1870      C1875   1.487       .  S
C1870      C1871   1.412       .  A
C1871      C1872   1.398       .  A
C1871      N1876   1.430       .  S
C1872      C1873   1.401       .  A
C1872      H1877   1.084       .  S
C1873      C1874   1.414       .  A
C1874      N1878   1.432       .  S
C1875      C1880   1.411       .  A
C1875      C1884   1.400       .  A
N1876      O1891   1.262       .  A
N1876      O1892   1.262       .  A
N1878      O1889   1.262       .  A
N1878      O1890   1.262       .  A
C1880      C1881   1.406       .  A
C1880      N1885   1.428       .  S
C1881      C1882   1.407       .  A
C1881      H1886   1.083       .  S
C1882      C1883   1.418       .  A
C1883      C1884   1.396       .  A
C1883      N1887   1.431       .  S
C1884      H1888   1.084       .  S
N1885      O1895   1.262       .  A
N1885      O1896   1.262       .  A
N1887      O1893   1.262       .  A
N1887      O1894   1.262       .  A
C1897      C1898   1.400       .  A
C1897      C1902   1.398       .  A
C1897      H1907   1.084       .  S
C1898      C1903   1.476       .  S
C1898      C1899   1.408       .  A
C1899      C1900   1.402       .  A
C1899      N1904   1.429       .  S
C1900      C1901   1.405       .  A
C1900      H1905   1.084       .  S
C1901      C1902   1.412       .  A
C1902      N1906   1.429       .  S
C1903      C1908   1.409       .  A
C1903      C1912   1.400       .  A
N1904      O1919   1.262       .  A
N1904      O1920   1.262       .  A
N1906      O1917   1.261       .  A
N1906      O1918   1.262       .  A
C1908      C1909   1.403       .  A
C1908      N1913   1.431       .  S
C1909      C1910   1.406       .  A
C1909      H1914   1.084       .  S
C1910      C1911   1.413       .  A
C1911      C1912   1.398       .  A
C1911      N1915   1.430       .  S
C1912      H1916   1.084       .  S
N1913      O1923   1.262       .  A
N1913      O1924   1.262       .  A
N1915      O1921   1.262       .  A
N1915      O1922   1.262       .  A
C1925      C1926   1.402       .  A
C1925      C1930   1.401       .  A
C1925      H1935   1.084       .  S
C1926      C1931   1.473       .  S
C1926      C1927   1.406       .  A
C1927      C1928   1.397       .  A
C1927      N1932   1.430       .  S
C1928      C1929   1.403       .  A
C1928      H1933   1.084       .  S
C1929      C1930   1.410       .  A
C1930      N1934   1.429       .  S
C1931      C1936   1.406       .  A
C1931      C1940   1.401       .  A
N1932      O1947   1.262       .  A
N1932      O1948   1.262       .  A
N1934      O1945   1.262       .  A
N1934      O1946   1.261       .  A
C1936      C1937   1.396       .  A
C1936      N1941   1.429       .  S
C1937      C1938   1.402       .  A
C1937      H1942   1.084       .  S
C1938      C1939   1.412       .  A
C1939      C1940   1.401       .  A
C1939      N1943   1.430       .  S
C1940      H1944   1.084       .  S
N1941      O1951   1.262       .  A
N1941      O1952   1.262       .  A
N1943      O1949   1.261       .  A
N1943      O1950   1.262       .  A
C1953      C1954   1.400       .  A
C1953      C1958   1.396       .  A
C1953      H1963   1.084       .  S
C1954      C1959   1.483       .  S
C1954      C1955   1.409       .  A
C1955      C1956   1.404       .  A
C1955      N1960   1.429       .  S
C1956      C1957   1.407       .  A
C1956      H1961   1.083       .  S
C1957      C1958   1.416       .  A
C1958      N1962   1.431       .  S
C1959      C1964   1.408       .  A
C1959      C1968   1.405       .  A
N1960      O1975   1.262       .  A
N1960      O1976   1.262       .  A
N1962      O1973   1.262       .  A
N1962      O1974   1.262       .  A
C1964      C1965   1.393       .  A
C1964      N1969   1.431       .  S
C1965      C1966   1.399       .  A
C1965      H1970   1.077       .  S
C1966      C1967   1.413       .  A
C1967      C1968   1.406       .  A
C1967      N1971   1.429       .  S
C1968      H1972   1.083       .  S
N1969      O1979   1.262       .  A
N1969      O1980   1.262       .  A
N1971      O1977   1.262       .  A
N1971      O1978   1.262       .  A
C1981      C1982   1.403       .  A
C1981      C1986   1.397       .  A
C1981      H1991   1.084       .  S
C1982      C1987   1.483       .  S
C1982      C1983   1.408       .  A
C1983      C1984   1.401       .  A
C1983      N1988   1.428       .  S
C1984      C1985   1.406       .  A
C1984      H1989   1.083       .  S
C1985      C1986   1.414       .  A
C1986      N1990   1.431       .  S
C1987      C1992   1.409       .  A
C1987      C1996   1.405       .  A
N1988      O2003   1.262       .  A
N1988      O2004   1.262       .  A
N1990      O2001   1.262       .  A
N1990      O2002   1.262       .  A
C1992      C1993   1.396       .  A
C1992      N1997   1.431       .  S
C1993      C1994   1.404       .  A
C1993      H1998   1.084       .  S
C1994      C1995   1.412       .  A
C1995      C1996   1.403       .  A
C1995      N1999   1.429       .  S
C1996      H2000   1.083       .  S
N1997      O2007   1.262       .  A
N1997      O2008   1.262       .  A
N1999      O2005   1.262       .  A
N1999      O2006   1.262       .  A
C2009      C2010   1.399       .  A
C2009      C2014   1.399       .  A
C2009      H2019   1.084       .  S
C2010      C2015   1.482       .  S
C2010      C2011   1.410       .  A
C2011      C2012   1.404       .  A
C2011      N2016   1.429       .  S
C2012      C2013   1.406       .  A
C2012      H2017   1.084       .  S
C2013      C2014   1.411       .  A
C2014      N2018   1.425       .  S
C2015      C2020   1.410       .  A
C2015      C2024   1.402       .  A
N2016      O2031   1.262       .  A
N2016      O2032   1.262       .  A
N2018      O2029   1.262       .  A
N2018      O2030   1.262       .  A
C2020      C2021   1.400       .  A
C2020      N2025   1.429       .  S
C2021      C2022   1.403       .  A
C2021      H2026   1.084       .  S
C2022      C2023   1.411       .  A
C2023      C2024   1.403       .  A
C2023      N2027   1.431       .  S
C2024      H2028   1.083       .  S
N2025      O2035   1.262       .  A
N2025      O2036   1.262       .  A
N2027      O2033   1.262       .  A
N2027      O2034   1.262       .  A
C2037      C2038   1.401       .  A
C2037      C2042   1.399       .  A
C2037      H2047   1.084       .  S
C2038      C2043   1.479       .  S
C2038      C2039   1.407       .  A
C2039      C2040   1.402       .  A
C2039      N2044   1.429       .  S
C2040      C2041   1.407       .  A
C2040      H2045   1.084       .  S
C2041      C2042   1.411       .  A
C2042      N2046   1.430       .  S
C2043      C2048   1.405       .  A
C2043      C2052   1.403       .  A
N2044      O2059   1.262       .  A
N2044      O2060   1.262       .  A
N2046      O2057   1.262       .  A
N2046      O2058   1.262       .  A
C2048      C2049   1.392       .  A
C2048      N2053   1.429       .  S
C2049      C2050   1.408       .  A
C2049      H2054   1.083       .  S
C2050      C2051   1.418       .  A
C2051      C2052   1.406       .  A
C2051      N2055   1.429       .  S
C2052      H2056   1.084       .  S
N2053      O2063   1.262       .  A
N2053      O2064   1.262       .  A
N2055      O2061   1.262       .  A
N2055      O2062   1.262       .  A
C2065      C2066   1.398       .  A
C2065      C2070   1.396       .  A
C2065      H2075   1.084       .  S
C2066      C2071   1.479       .  S
C2066      C2067   1.407       .  A
C2067      C2068   1.406       .  A
C2067      N2072   1.430       .  S
C2068      C2069   1.411       .  A
C2068      H2073   1.083       .  S
C2069      C2070   1.416       .  A
C2070      N2074   1.428       .  S
C2071      C2076   1.408       .  A
C2071      C2080   1.405       .  A
N2072      O2087   1.262       .  A
N2072      O2088   1.262       .  A
N2074      O2085   1.262       .  A
N2074      O2086   1.262       .  A
C2076      C2077   1.398       .  A
C2076      N2081   1.429       .  S
C2077      C2078   1.397       .  A
C2077      H2082   1.079       .  S
C2078      C2079   1.407       .  A
C2079      C2080   1.405       .  A
C2079      N2083   1.430       .  S
C2080      H2084   1.084       .  S
N2081      O2091   1.262       .  A
N2081      O2092   1.262       .  A
N2083      O2089   1.261       .  A
N2083      O2090   1.262       .  A
C2093      C2094   1.401   1_455  A
C2093      C2098   1.402       .  A
C2093      H2103   1.084       .  S
C2094      C2099   1.476       .  S
C2094      C2095   1.406       .  A
C2095      C2096   1.401   1_655  A
C2095      N2100   1.430       .  S
C2096      C2097   1.404       .  A
C2096      H2101   1.084       .  S
C2097      C2098   1.413       .  A
C2098      N2102   1.434       .  S
C2099      C2104   1.404       .  A
C2099      C2108   1.400       .  A
N2100      O2115   1.262       .  A
N2100      O2116   1.262       .  A
N2102      O2113   1.262       .  A
N2102      O2114   1.262       .  A
C2104      C2105   1.396       .  A
C2104      N2109   1.429       .  S
C2105      C2106   1.408       .  A
C2105      H2110   1.083       .  S
C2106      C2107   1.420       .  A
C2107      C2108   1.403       .  A
C2107      N2111   1.432       .  S
C2108      H2112   1.084       .  S
N2109      O2119   1.262   1_655  A
N2109      O2120   1.262   1_655  A
N2111      O2117   1.262       .  A
N2111      O2118   1.262       .  A
C2121      C2122   1.402       .  A
C2121      C2126   1.399       .  A
C2121      H2131   1.084       .  S
C2122      C2127   1.473       .  S
C2122      C2123   1.408       .  A
C2123      C2124   1.399       .  A
C2123      N2128   1.429       .  S
C2124      C2125   1.403       .  A
C2124      H2129   1.084       .  S
C2125      C2126   1.407       .  A
C2126      N2130   1.431       .  S
C2127      C2132   1.408       .  A
C2127      C2136   1.399       .  A
N2128      O2143   1.262       .  A
N2128      O2144   1.262       .  A
N2130      O2141   1.262       .  A
N2130      O2142   1.262       .  A
C2132      C2133   1.400       .  A
C2132      N2137   1.430       .  S
C2133      C2134   1.405       .  A
C2133      H2138   1.084       .  S
C2134      C2135   1.413       .  A
C2135      C2136   1.398       .  A
C2135      N2139   1.430       .  S
C2136      H2140   1.084       .  S
N2137      O2147   1.262       .  A
N2137      O2148   1.262       .  A
N2139      O2145   1.262       .  A
N2139      O2146   1.262       .  A
C2149      C2150   1.401       .  A
C2149      C2154   1.403   1_655  A
C2149      H2159   1.084       .  S
C2150      C2155   1.478       .  S
C2150      C2151   1.406   1_655  A
C2151      C2152   1.400       .  A
C2151      N2156   1.429       .  S
C2152      C2153   1.406       .  A
C2152      H2157   1.083       .  S
C2153      C2154   1.414       .  A
C2154      N2158   1.429       .  S
C2155      C2160   1.407       .  A
C2155      C2164   1.402       .  A
N2156      O2171   1.262       .  A
N2156      O2172   1.261   1_455  A
N2158      O2169   1.262       .  A
N2158      O2170   1.262   1_455  A
C2160      C2161   1.401       .  A
C2160      N2165   1.428       .  S
C2161      C2162   1.404       .  A
C2161      H2166   1.084       .  S
C2162      C2163   1.412       .  A
C2163      C2164   1.401       .  A
C2163      N2167   1.430       .  S
C2164      H2168   1.084       .  S
N2165      O2175   1.261       .  A
N2165      O2176   1.262       .  A
N2167      O2173   1.262       .  A
N2167      O2174   1.262       .  A
C2177      C2178   1.400   1_455  A
C2177      C2182   1.397       .  A
C2177      H2187   1.084       .  S
C2178      C2183   1.478       .  S
C2178      C2179   1.408       .  A
C2179      C2180   1.404   1_655  A
C2179      N2184   1.428       .  S
C2180      C2181   1.405       .  A
C2180      H2185   1.084       .  S
C2181      C2182   1.412       .  A
C2182      N2186   1.430       .  S
C2183      C2188   1.407       .  A
C2183      C2192   1.401       .  A
N2184      O2199   1.262       .  A
N2184      O2200   1.262       .  A
N2186      O2197   1.262       .  A
N2186      O2198   1.262       .  A
C2188      C2189   1.397       .  A
C2188      N2193   1.429       .  S
C2189      C2190   1.404       .  A
C2189      H2194   1.084       .  S
C2190      C2191   1.415       .  A
C2191      C2192   1.404       .  A
C2191      N2195   1.430       .  S
C2192      H2196   1.084       .  S
N2193      O2203   1.262   1_655  A
N2193      O2204   1.262       .  A
N2195      O2201   1.262       .  A
N2195      O2202   1.262       .  A
C2205      C2206   1.402       .  A
C2205      C2210   1.396       .  A
C2205      H2215   1.084       .  S
C2206      C2211   1.478       .  S
C2206      C2207   1.408       .  A
C2207      C2208   1.400       .  A
C2207      N2212   1.429       .  S
C2208      C2209   1.404       .  A
C2208      H2213   1.084       .  S
C2209      C2210   1.413       .  A
C2210      N2214   1.432       .  S
C2211      C2216   1.407       .  A
C2211      C2220   1.403       .  A
N2212      O2227   1.262       .  A
N2212      O2228   1.262       .  A
N2214      O2225   1.262       .  A
N2214      O2226   1.262       .  A
C2216      C2217   1.394       .  A
C2216      N2221   1.430       .  S
C2217      C2218   1.405       .  A
C2217      H2222   1.084       .  S
C2218      C2219   1.414       .  A
C2219      C2220   1.401       .  A
C2219      N2223   1.429       .  S
C2220      H2224   1.084       .  S
N2221      O2231   1.262       .  A
N2221      O2232   1.262       .  A
N2223      O2229   1.262       .  A
N2223      O2230   1.262       .  A
C2233      C2234   1.404       .  A
C2233      C2238   1.405       .  A
C2233      H2243   1.083       .  S
C2234      C2239   1.488       .  S
C2234      C2235   1.409       .  A
C2235      C2236   1.395       .  A
C2235      N2240   1.430       .  S
C2236      C2237   1.407       .  A
C2236      H2241   1.083       .  S
C2237      C2238   1.418       .  A
C2238      N2242   1.429       .  S
C2239      C2244   1.412       .  A
C2239      C2248   1.404   1_655  A
N2240      O2255   1.262   1_655  A
N2240      O2256   1.262   1_655  A
N2242      O2253   1.262       .  A
N2242      O2254   1.262       .  A
C2244      C2245   1.404   1_655  A
C2244      N2249   1.430       .  S
C2245      C2246   1.405       .  A
C2245      H2250   1.084       .  S
C2246      C2247   1.411       .  A
C2247      C2248   1.397       .  A
C2247      N2251   1.430       .  S
C2248      H2252   1.084       .  S
N2249      O2259   1.262       .  A
N2249      O2260   1.262       .  A
N2251      O2257   1.262       .  A
N2251      O2258   1.262       .  A
C2261      C2262   1.406       .  A
C2261      C2266   1.399       .  A
C2261      H2271   1.084       .  S
C2262      C2267   1.488       .  S
C2262      C2263   1.411       .  A
C2263      C2264   1.403       .  A
C2263      N2268   1.429       .  S
C2264      C2265   1.404       .  A
C2264      H2269   1.084       .  S
C2265      C2266   1.410       .  A
C2266      N2270   1.431       .  S
C2267      C2272   1.408       .  A
C2267      C2276   1.406       .  A
N2268      O2283   1.262       .  A
N2268      O2284   1.262       .  A
N2270      O2281   1.262       .  A
N2270      O2282   1.262       .  A
C2272      C2273   1.396       .  A
C2272      N2277   1.431       .  S
C2273      C2274   1.407       .  A
C2273      H2278   1.083       .  S
C2274      C2275   1.417       .  A
C2275      C2276   1.408       .  A
C2275      N2279   1.431       .  S
C2276      H2280   1.084       .  S
N2277      O2287   1.262       .  A
N2277      O2288   1.262       .  A
N2279      O2285   1.262       .  A
N2279      O2286   1.262       .  A
C2289      C2290   1.401       .  A
C2289      C2294   1.399       .  A
C2289      H2299   1.084       .  S
C2290      C2295   1.477       .  S
C2290      C2291   1.408       .  A
C2291      C2292   1.403       .  A
C2291      N2296   1.429       .  S
C2292      C2293   1.406       .  A
C2292      H2297   1.084       .  S
C2293      C2294   1.411       .  A
C2294      N2298   1.432       .  S
C2295      C2300   1.409       .  A
C2295      C2304   1.399       .  A
N2296      O2311   1.262       .  A
N2296      O2312   1.262       .  A
N2298      O2309   1.262       .  A
N2298      O2310   1.263       .  A
C2300      C2301   1.405       .  A
C2300      N2305   1.429       .  S
C2301      C2302   1.406       .  A
C2301      H2306   1.084       .  S
C2302      C2303   1.412       .  A
C2303      C2304   1.397       .  A
C2303      N2307   1.429       .  S
C2304      H2308   1.084       .  S
N2305      O2315   1.262       .  A
N2305      O2316   1.262       .  A
N2307      O2313   1.262       .  A
N2307      O2314   1.262       .  A
C2317      C2318   1.397       .  A
C2317      C2322   1.395       .  A
C2317      H2327   1.085       .  S
C2318      C2323   1.476       .  S
C2318      C2319   1.407       .  A
C2319      C2320   1.401       .  A
C2319      N2324   1.431       .  S
C2320      C2321   1.410       .  A
C2320      H2325   1.082       .  S
C2321      C2322   1.417       .  A
C2322      N2326   1.429       .  S
C2323      C2328   1.410       .  A
C2323      C2332   1.401   1_655  A
N2324      O2339   1.262       .  A
N2324      O2340   1.262       .  A
N2326      O2337   1.261       .  A
N2326      O2338   1.262       .  A
C2328      C2329   1.402   1_655  A
C2328      N2333   1.431       .  S
C2329      C2330   1.405       .  A
C2329      H2334   1.084       .  S
C2330      C2331   1.408       .  A
C2331      C2332   1.395       .  A
C2331      N2335   1.429       .  S
C2332      H2336   1.084       .  S
N2333      O2343   1.262       .  A
N2333      O2344   1.262       .  A
N2335      O2341   1.262       .  A
N2335      O2342   1.262       .  A
C2345      C2346   1.403       .  A
C2345      C2350   1.403       .  A
C2345      H2355   1.084       .  S
C2346      C2351   1.479       .  S
C2346      C2347   1.406       .  A
C2347      C2348   1.396       .  A
C2347      N2352   1.430       .  S
C2348      C2349   1.407       .  A
C2348      H2353   1.084       .  S
C2349      C2350   1.413       .  A
C2350      N2354   1.431       .  S
C2351      C2356   1.407       .  A
C2351      C2360   1.404       .  A
N2352      O2367   1.262       .  A
N2352      O2368   1.262       .  A
N2354      O2365   1.262       .  A
N2354      O2366   1.262       .  A
C2356      C2357   1.398       .  A
C2356      N2361   1.428       .  S
C2357      C2358   1.403       .  A
C2357      H2362   1.084       .  S
C2358      C2359   1.413       .  A
C2359      C2360   1.400       .  A
C2359      N2363   1.435       .  S
C2360      H2364   1.084       .  S
N2361      O2371   1.262       .  A
N2361      O2372   1.262       .  A
N2363      O2369   1.263       .  A
N2363      O2370   1.262       .  A
C2373      C2374   1.401       .  A
C2373      C2378   1.401       .  A
C2373      H2383   1.084       .  S
C2374      C2379   1.472       .  S
C2374      C2375   1.408       .  A
C2375      C2376   1.392       .  A
C2375      N2380   1.433       .  S
C2376      C2377   1.400       .  A
C2376      H2381   1.080       .  S
C2377      C2378   1.414       .  A
C2378      N2382   1.430       .  S
C2379      C2384   1.407       .  A
C2379      C2388   1.399   1_655  A
N2380      O2395   1.262   1_655  A
N2380      O2396   1.262       .  A
N2382      O2393   1.262       .  A
N2382      O2394   1.262       .  A
C2384      C2385   1.401   1_655  A
C2384      N2389   1.428       .  S
C2385      C2386   1.405       .  A
C2385      H2390   1.084       .  S
C2386      C2387   1.413       .  A
C2387      C2388   1.392       .  A
C2387      N2391   1.431       .  S
C2388      H2392   1.084       .  S
N2389      O2399   1.262       .  A
N2389      O2400   1.262       .  A
N2391      O2397   1.262       .  A
N2391      O2398   1.262       .  A
C2401      C2402   1.401       .  A
C2401      C2406   1.399       .  A
C2401      H2411   1.084       .  S
C2402      C2407   1.479       .  S
C2402      C2403   1.409       .  A
C2403      C2404   1.401       .  A
C2403      N2408   1.429       .  S
C2404      C2405   1.403       .  A
C2404      H2409   1.084       .  S
C2405      C2406   1.410       .  A
C2406      N2410   1.430       .  S
C2407      C2412   1.410       .  A
C2407      C2416   1.403       .  A
N2408      O2423   1.262       .  A
N2408      O2424   1.262       .  A
N2410      O2421   1.262       .  A
N2410      O2422   1.262       .  A
C2412      C2413   1.398       .  A
C2412      N2417   1.429       .  S
C2413      C2414   1.402       .  A
C2413      H2418   1.084       .  S
C2414      C2415   1.410       .  A
C2415      C2416   1.400       .  A
C2415      N2419   1.430       .  S
C2416      H2420   1.084       .  S
N2417      O2427   1.262       .  A
N2417      O2428   1.262       .  A
N2419      O2425   1.262       .  A
N2419      O2426   1.262       .  A
C2429      C2430   1.404       .  A
C2429      C2434   1.406       .  A
C2429      H2439   1.083       .  S
C2430      C2435   1.485       .  S
C2430      C2431   1.409       .  A
C2431      C2432   1.396       .  A
C2431      N2436   1.430       .  S
C2432      C2433   1.403       .  A
C2432      H2437   1.084       .  S
C2433      C2434   1.417       .  A
C2434      N2438   1.430       .  S
C2435      C2440   1.408       .  A
C2435      C2444   1.400   1_655  A
N2436      O2451   1.262   1_655  A
N2436      O2452   1.262       .  A
N2438      O2449   1.262       .  A
N2438      O2450   1.261       .  A
C2440      C2441   1.406   1_655  A
C2440      N2445   1.429       .  S
C2441      C2442   1.410       .  A
C2441      H2446   1.083       .  S
C2442      C2443   1.416       .  A
C2443      C2444   1.397       .  A
C2443      N2447   1.428       .  S
C2444      H2448   1.084       .  S
N2445      O2455   1.262       .  A
N2445      O2456   1.262       .  A
N2447      O2453   1.262       .  A
N2447      O2454   1.262       .  A
C2457      C2458   1.399       .  A
C2457      C2462   1.401       .  A
C2457      H2467   1.084       .  S
C2458      C2463   1.472       .  S
C2458      C2459   1.407       .  A
C2459      C2460   1.398       .  A
C2459      N2464   1.433       .  S
C2460      C2461   1.404       .  A
C2460      H2465   1.084       .  S
C2461      C2462   1.414       .  A
C2462      N2466   1.435       .  S
C2463      C2468   1.406       .  A
C2463      C2472   1.398       .  A
N2464      O2479   1.262       .  A
N2464      O2480   1.262       .  A
N2466      O2477   1.263       .  A
N2466      O2478   1.262       .  A
C2468      C2469   1.397       .  A
C2468      N2473   1.430       .  S
C2469      C2470   1.406       .  A
C2469      H2474   1.082       .  S
C2470      C2471   1.417       .  A
C2471      C2472   1.401       .  A
C2471      N2475   1.429       .  S
C2472      H2476   1.084       .  S
N2473      O2483   1.262       .  A
N2473      O2484   1.261       .  A
N2475      O2481   1.262       .  A
N2475      O2482   1.262       .  A
C2485      C2486   1.404       .  A
C2485      C2490   1.404   1_655  A
C2485      H2495   1.084       .  S
C2486      C2491   1.481       .  S
C2486      C2487   1.407   1_655  A
C2487      C2488   1.396       .  A
C2487      N2492   1.430       .  S
C2488      C2489   1.405       .  A
C2488      H2493   1.084       .  S
C2489      C2490   1.413       .  A
C2490      N2494   1.430       .  S
C2491      C2496   1.406       .  A
C2491      C2500   1.403       .  A
N2492      O2507   1.262       .  A
N2492      O2508   1.262   1_455  A
N2494      O2505   1.262   1_455  A
N2494      O2506   1.262       .  A
C2496      C2497   1.400       .  A
C2496      N2501   1.428       .  S
C2497      C2498   1.408       .  A
C2497      H2502   1.084       .  S
C2498      C2499   1.414       .  A
C2499      C2500   1.399       .  A
C2499      N2503   1.430       .  S
C2500      H2504   1.084       .  S
N2501      O2511   1.262       .  A
N2501      O2512   1.262       .  A
N2503      O2509   1.262       .  A
N2503      O2510   1.262       .  A
C2513      C2514   1.397       .  A
C2513      C2518   1.398       .  A
C2513      H2523   1.084       .  S
C2514      C2519   1.470       .  S
C2514      C2515   1.406       .  A
C2515      C2516   1.397       .  A
C2515      N2520   1.432       .  S
C2516      C2517   1.408       .  A
C2516      H2521   1.083       .  S
C2517      C2518   1.413       .  A
C2518      N2522   1.429       .  S
C2519      C2524   1.408       .  A
C2519      C2528   1.400       .  A
N2520      O2535   1.262       .  A
N2520      O2536   1.262       .  A
N2522      O2533   1.262       .  A
N2522      O2534   1.261       .  A
C2524      C2525   1.393       .  A
C2524      N2529   1.432       .  S
C2525      C2526   1.407       .  A
C2525      H2530   1.084       .  S
C2526      C2527   1.412       .  A
C2527      C2528   1.398       .  A
C2527      N2531   1.429       .  S
C2528      H2532   1.084       .  S
N2529      O2539   1.262       .  A
N2529      O2540   1.262       .  A
N2531      O2537   1.262       .  A
N2531      O2538   1.262       .  A
C2541      C2542   1.401       .  A
C2541      C2546   1.396       .  A
C2541      H2551   1.083       .  S
C2542      C2547   1.482       .  S
C2542      C2543   1.411       .  A
C2543      C2544   1.401       .  A
C2543      N2548   1.431       .  S
C2544      C2545   1.404       .  A
C2544      H2549   1.084       .  S
C2545      C2546   1.414       .  A
C2546      N2550   1.432       .  S
C2547      C2552   1.408       .  A
C2547      C2556   1.404       .  A
N2548      O2563   1.262       .  A
N2548      O2564   1.262       .  A
N2550      O2561   1.262       .  A
N2550      O2562   1.262       .  A
C2552      C2553   1.392       .  A
C2552      N2557   1.430       .  S
C2553      C2554   1.406       .  A
C2553      H2558   1.083       .  S
C2554      C2555   1.416       .  A
C2555      C2556   1.402       .  A
C2555      N2559   1.429       .  S
C2556      H2560   1.084       .  S
N2557      O2567   1.262       .  A
N2557      O2568   1.261       .  A
N2559      O2565   1.262       .  A
N2559      O2566   1.262       .  A
C2569      C2570   1.401       .  A
C2569      C2574   1.401       .  A
C2569      H2579   1.084       .  S
C2570      C2575   1.480       .  S
C2570      C2571   1.407       .  A
C2571      C2572   1.402       .  A
C2571      N2576   1.428       .  S
C2572      C2573   1.406       .  A
C2572      H2577   1.084       .  S
C2573      C2574   1.414       .  A
C2574      N2578   1.429       .  S
C2575      C2580   1.409       .  A
C2575      C2584   1.403       .  A
N2576      O2591   1.262       .  A
N2576      O2592   1.262       .  A
N2578      O2589   1.262       .  A
N2578      O2590   1.262       .  A
C2580      C2581   1.402       .  A
C2580      N2585   1.428       .  S
C2581      C2582   1.403       .  A
C2581      H2586   1.084       .  S
C2582      C2583   1.410       .  A
C2583      C2584   1.402       .  A
C2583      N2587   1.430       .  S
C2584      H2588   1.084       .  S
N2585      O2595   1.262       .  A
N2585      O2596   1.262       .  A
N2587      O2593   1.262       .  A
N2587      O2594   1.262       .  A
C2597      C2598   1.403       .  A
C2597      C2602   1.403       .  A
C2597      H2607   1.084       .  S
C2598      C2603   1.484       .  S
C2598      C2599   1.408       .  A
C2599      C2600   1.398       .  A
C2599      N2604   1.430       .  S
C2600      C2601   1.407       .  A
C2600      H2605   1.082       .  S
C2601      C2602   1.418       .  A
C2602      N2606   1.429       .  S
C2603      C2608   1.410       .  A
C2603      C2612   1.404       .  A
N2604      O2619   1.262       .  A
N2604      O2620   1.262       .  A
N2606      O2617   1.262       .  A
N2606      O2618   1.262       .  A
C2608      C2609   1.401       .  A
C2608      N2613   1.430       .  S
C2609      C2610   1.404       .  A
C2609      H2614   1.082       .  S
C2610      C2611   1.412       .  A
C2611      C2612   1.399       .  A
C2611      N2615   1.429       .  S
C2612      H2616   1.084       .  S
N2613      O2623   1.262       .  A
N2613      O2624   1.262       .  A
N2615      O2621   1.262       .  A
N2615      O2622   1.262       .  A
C2625      C2626   1.402       .  A
C2625      C2630   1.398       .  A
C2625      H2635   1.084       .  S
C2626      C2631   1.484       .  S
C2626      C2627   1.411       .  A
C2627      C2628   1.404       .  A
C2627      N2632   1.429       .  S
C2628      C2629   1.404       .  A
C2628      H2633   1.084       .  S
C2629      C2630   1.410       .  A
C2630      N2634   1.430       .  S
C2631      C2636   1.407       .  A
C2631      C2640   1.402       .  A
N2632      O2647   1.262       .  A
N2632      O2648   1.262       .  A
N2634      O2645   1.262       .  A
N2634      O2646   1.262       .  A
C2636      C2637   1.398       .  A
C2636      N2641   1.429       .  S
C2637      C2638   1.409       .  A
C2637      H2642   1.083       .  S
C2638      C2639   1.420       .  A
C2639      C2640   1.405       .  A
C2639      N2643   1.431       .  S
C2640      H2644   1.084       .  S
N2641      O2651   1.262       .  A
N2641      O2652   1.262       .  A
N2643      O2649   1.262       .  A
N2643      O2650   1.262       .  A
C2653      C2654   1.406       .  A
C2653      C2658   1.405       .  A
C2653      H2663   1.083       .  S
C2654      C2659   1.482       .  S
C2654      C2655   1.409       .  A
C2655      C2656   1.395       .  A
C2655      N2660   1.431       .  S
C2656      C2657   1.401       .  A
C2656      H2661   1.084       .  S
C2657      C2658   1.410       .  A
C2658      N2662   1.430       .  S
C2659      C2664   1.406       .  A
C2659      C2668   1.401       .  A
N2660      O2675   1.262       .  A
N2660      O2676   1.262       .  A
N2662      O2673   1.262       .  A
N2662      O2674   1.262       .  A
C2664      C2665   1.401       .  A
C2664      N2669   1.428       .  S
C2665      C2666   1.409       .  A
C2665      H2670   1.082       .  S
C2666      C2667   1.418       .  A
C2667      C2668   1.397       .  A
C2667      N2671   1.431       .  S
C2668      H2672   1.084       .  S
N2669      O2679   1.262       .  A
N2669      O2680   1.262       .  A
N2671      O2677   1.262       .  A
N2671      O2678   1.262       .  A
C2681      C2682   1.396       .  A
C2681      C2686   1.396       .  A
C2681      H2691   1.084       .  S
C2682      C2687   1.475       .  S
C2682      C2683   1.406       .  A
C2683      C2684   1.404       .  A
C2683      N2688   1.429       .  S
C2684      C2685   1.409       .  A
C2684      H2689   1.083       .  S
C2685      C2686   1.422       .  A
C2686      N2690   1.430       .  S
C2687      C2692   1.408       .  A
C2687      C2696   1.403       .  A
N2688      O2703   1.262       .  A
N2688      O2704   1.262       .  A
N2690      O2701   1.262       .  A
N2690      O2702   1.262       .  A
C2692      C2693   1.399       .  A
C2692      N2697   1.428       .  S
C2693      C2694   1.400       .  A
C2693      H2698   1.084       .  S
C2694      C2695   1.408       .  A
C2695      C2696   1.402       .  A
C2695      N2699   1.432       .  S
C2696      H2700   1.084       .  S
N2697      O2707   1.262       .  A
N2697      O2708   1.262       .  A
N2699      O2705   1.262       .  A
N2699      O2706   1.263       .  A
C2709      C2710   1.401       .  A
C2709      C2714   1.402       .  A
C2709      H2719   1.084       .  S
C2710      C2715   1.478       .  S
C2710      C2711   1.409       .  A
C2711      C2712   1.396       .  A
C2711      N2716   1.433       .  S
C2712      C2713   1.409       .  A
C2712      H2717   1.083       .  S
C2713      C2714   1.418       .  A
C2714      N2718   1.430       .  S
C2715      C2720   1.410       .  A
C2715      C2724   1.403       .  A
N2716      O2731   1.262       .  A
N2716      O2732   1.262       .  A
N2718      O2729   1.262       .  A
N2718      O2730   1.262       .  A
C2720      C2721   1.398       .  A
C2720      N2725   1.431       .  S
C2721      C2722   1.402       .  A
C2721      H2726   1.084       .  S
C2722      C2723   1.407       .  A
C2723      C2724   1.400       .  A
C2723      N2727   1.428       .  S
C2724      H2728   1.084       .  S
N2725      O2735   1.262       .  A
N2725      O2736   1.262       .  A
N2727      O2733   1.262       .  A
N2727      O2734   1.262       .  A
C2737      C2738   1.398       .  A
C2737      C2742   1.396       .  A
C2737      H2747   1.084       .  S
C2738      C2743   1.476       .  S
C2738      C2739   1.405       .  A
C2739      C2740   1.405       .  A
C2739      N2744   1.428       .  S
C2740      C2741   1.409       .  A
C2740      H2745   1.083       .  S
C2741      C2742   1.417       .  A
C2742      N2746   1.430       .  S
C2743      C2748   1.408       .  A
C2743      C2752   1.404       .  A
N2744      O2759   1.262       .  A
N2744      O2760   1.262       .  A
N2746      O2757   1.262       .  A
N2746      O2758   1.262       .  A
C2748      C2749   1.398       .  A
C2748      N2753   1.429       .  S
C2749      C2750   1.401       .  A
C2749      H2754   1.084       .  S
C2750      C2751   1.409       .  A
C2751      C2752   1.403       .  A
C2751      N2755   1.431       .  S
C2752      H2756   1.084       .  S
N2753      O2763   1.262       .  A
N2753      O2764   1.262       .  A
N2755      O2761   1.262       .  A
N2755      O2762   1.262       .  A
C2765      C2766   1.403       .  A
C2765      C2770   1.397       .  A
C2765      H2775   1.084       .  S
C2766      C2771   1.486       .  S
C2766      C2767   1.410       .  A
C2767      C2768   1.402       .  A
C2767      N2772   1.428       .  S
C2768      C2769   1.405       .  A
C2768      H2773   1.084       .  S
C2769      C2770   1.414       .  A
C2770      N2774   1.430       .  S
C2771      C2776   1.409       .  A
C2771      C2780   1.405       .  A
N2772      O2787   1.262       .  A
N2772      O2788   1.262       .  A
N2774      O2785   1.262       .  A
N2774      O2786   1.262       .  A
C2776      C2777   1.394       .  A
C2776      N2781   1.430       .  S
C2777      C2778   1.406       .  A
C2777      H2782   1.083       .  S
C2778      C2779   1.416       .  A
C2779      C2780   1.406       .  A
C2779      N2783   1.429       .  S
C2780      H2784   1.083       .  S
N2781      O2791   1.262       .  A
N2781      O2792   1.262       .  A
N2783      O2789   1.262       .  A
N2783      O2790   1.262       .  A
C2793      C2794   1.402       .  A
C2793      C2798   1.403       .  A
C2793      H2803   1.084       .  S
C2794      C2799   1.474       .  S
C2794      C2795   1.406       .  A
C2795      C2796   1.392       .  A
C2795      N2800   1.429       .  S
C2796      C2797   1.403       .  A
C2796      H2801   1.084       .  S
C2797      C2798   1.415       .  A
C2798      N2802   1.431       .  S
C2799      C2804   1.406       .  A
C2799      C2808   1.401       .  A
N2800      O2815   1.262       .  A
N2800      O2816   1.262       .  A
N2802      O2813   1.262       .  A
N2802      O2814   1.262       .  A
C2804      C2805   1.400       .  A
C2804      N2809   1.428       .  S
C2805      C2806   1.406       .  A
C2805      H2810   1.084       .  S
C2806      C2807   1.412       .  A
C2807      C2808   1.397       .  A
C2807      N2811   1.432       .  S
C2808      H2812   1.084       .  S
N2809      O2819   1.262       .  A
N2809      O2820   1.262       .  A
N2811      O2817   1.262       .  A
N2811      O2818   1.262       .  A
C2821      C2822   1.401       .  A
C2821      C2826   1.394       .  A
C2821      H2831   1.084       .  S
C2822      C2827   1.476       .  S
C2822      C2823   1.408       .  A
C2823      C2824   1.401       .  A
C2823      N2828   1.429       .  S
C2824      C2825   1.406       .  A
C2824      H2829   1.084       .  S
C2825      C2826   1.412       .  A
C2826      N2830   1.430       .  S
C2827      C2832   1.408       .  A
C2827      C2836   1.403       .  A
N2828      O2843   1.262       .  A
N2828      O2844   1.262       .  A
N2830      O2841   1.262       .  A
N2830      O2842   1.262       .  A
C2832      C2833   1.393       .  A
C2832      N2837   1.430       .  S
C2833      C2834   1.402       .  A
C2833      H2838   1.084       .  S
C2834      C2835   1.413       .  A
C2835      C2836   1.402       .  A
C2835      N2839   1.431       .  S
C2836      H2840   1.084       .  S
N2837      O2847   1.262       .  A
N2837      O2848   1.262       .  A
N2839      O2845   1.262       .  A
N2839      O2846   1.262       .  A
C2849      C2850   1.400       .  A
C2849      C2854   1.399       .  A
C2849      H2859   1.084       .  S
C2850      C2855   1.477       .  S
C2850      C2851   1.407       .  A
C2851      C2852   1.402       .  A
C2851      N2856   1.429       .  S
C2852      C2853   1.407       .  A
C2852      H2857   1.084       .  S
C2853      C2854   1.414       .  A
C2854      N2858   1.430       .  S
C2855      C2860   1.409       .  A
C2855      C2864   1.403       .  A
N2856      O2871   1.262       .  A
N2856      O2872   1.262       .  A
N2858      O2869   1.262       .  A
N2858      O2870   1.262       .  A
C2860      C2861   1.400       .  A
C2860      N2865   1.429       .  S
C2861      C2862   1.400       .  A
C2861      H2866   1.084       .  S
C2862      C2863   1.409       .  A
C2863      C2864   1.402       .  A
C2863      N2867   1.429       .  S
C2864      H2868   1.084       .  S
N2865      O2875   1.262       .  A
N2865      O2876   1.262       .  A
N2867      O2873   1.262       .  A
N2867      O2874   1.262       .  A
C2877      C2878   1.402       .  A
C2877      C2882   1.400       .  A
C2877      H2887   1.084       .  S
C2878      C2883   1.475       .  S
C2878      C2879   1.406       .  A
C2879      C2880   1.401       .  A
C2879      N2884   1.429       .  S
C2880      C2881   1.405       .  A
C2880      H2885   1.084       .  S
C2881      C2882   1.411       .  A
C2882      N2886   1.430       .  S
C2883      C2888   1.405       .  A
C2883      C2892   1.403       .  A
N2884      O2899   1.262       .  A
N2884      O2900   1.262       .  A
N2886      O2897   1.262       .  A
N2886      O2898   1.262       .  A
C2888      C2889   1.394       .  A
C2888      N2893   1.430       .  S
C2889      C2890   1.404       .  A
C2889      H2894   1.084       .  S
C2890      C2891   1.414       .  A
C2891      C2892   1.405       .  A
C2891      N2895   1.430       .  S
C2892      H2896   1.084       .  S
N2893      O2903   1.262       .  A
N2893      O2904   1.262       .  A
N2895      O2901   1.262       .  A
N2895      O2902   1.262       .  A
C2905      C2906   1.400       .  A
C2905      C2910   1.400       .  A
C2905      H2915   1.084       .  S
C2906      C2911   1.475       .  S
C2906      C2907   1.408       .  A
C2907      C2908   1.396       .  A
C2907      N2912   1.430       .  S
C2908      C2909   1.403       .  A
C2908      H2913   1.084       .  S
C2909      C2910   1.413       .  A
C2910      N2914   1.429       .  S
C2911      C2916   1.408       .  A
C2911      C2920   1.402       .  A
N2912      O2927   1.262       .  A
N2912      O2928   1.262       .  A
N2914      O2925   1.262       .  A
N2914      O2926   1.262       .  A
C2916      C2917   1.394       .  A
C2916      N2921   1.434       .  S
C2917      C2918   1.406   1_655  A
C2917      H2922   1.084       .  S
C2918      C2919   1.414       .  A
C2919      C2920   1.404   1_455  A
C2919      N2923   1.429       .  S
C2920      H2924   1.084   1_655  S
N2921      O2931   1.262       .  A
N2921      O2932   1.262       .  A
N2923      O2929   1.262       .  A
N2923      O2930   1.262       .  A
C2933      C2934   1.404       .  A
C2933      C2938   1.399       .  A
C2933      H2943   1.084       .  S
C2934      C2939   1.478       .  S
C2934      C2935   1.407       .  A
C2935      C2936   1.399       .  A
C2935      N2940   1.429       .  S
C2936      C2937   1.404       .  A
C2936      H2941   1.084       .  S
C2937      C2938   1.411       .  A
C2938      N2942   1.431       .  S
C2939      C2944   1.405       .  A
C2939      C2948   1.403       .  A
N2940      O2955   1.262       .  A
N2940      O2956   1.262       .  A
N2942      O2953   1.262       .  A
N2942      O2954   1.262       .  A
C2944      C2945   1.394       .  A
C2944      N2949   1.431       .  S
C2945      C2946   1.408   1_655  A
C2945      H2950   1.084       .  S
C2946      C2947   1.415       .  A
C2947      C2948   1.404   1_455  A
C2947      N2951   1.430       .  S
C2948      H2952   1.084   1_655  S
N2949      O2959   1.262       .  A
N2949      O2960   1.262       .  A
N2951      O2957   1.262       .  A
N2951      O2958   1.262       .  A
C2961      C2962   1.399       .  A
C2961      C2966   1.393       .  A
C2961      H2971   1.084       .  S
C2962      C2967   1.475       .  S
C2962      C2963   1.409       .  A
C2963      C2964   1.403       .  A
C2963      N2968   1.429       .  S
C2964      C2965   1.405       .  A
C2964      H2969   1.084       .  S
C2965      C2966   1.412       .  A
C2966      N2970   1.430       .  S
C2967      C2972   1.408       .  A
C2967      C2976   1.400       .  A
N2968      O2983   1.262       .  A
N2968      O2984   1.262       .  A
N2970      O2981   1.262       .  A
N2970      O2982   1.262       .  A
C2972      C2973   1.393       .  A
C2972      N2977   1.429       .  S
C2973      C2974   1.404       .  A
C2973      H2978   1.084       .  S
C2974      C2975   1.418       .  A
C2975      C2976   1.400       .  A
C2975      N2979   1.430       .  S
C2976      H2980   1.084       .  S
N2977      O2987   1.262       .  A
N2977      O2988   1.262       .  A
N2979      O2985   1.262       .  A
N2979      O2986   1.262       .  A
C2989      C2990   1.405       .  A
C2989      C2994   1.404       .  A
C2989      H2999   1.084       .  S
C2990      C2995   1.484       .  S
C2990      C2991   1.408       .  A
C2991      C2992   1.396       .  A
C2991      N2996   1.430       .  S
C2992      C2993   1.406       .  A
C2992      H2997   1.084       .  S
C2993      C2994   1.412       .  A
C2994      N2998   1.428       .  S
C2995      C3000   1.409       .  A
C2995      C3004   1.403       .  A
N2996      O3011   1.262       .  A
N2996      O3012   1.262       .  A
N2998      O3009   1.261       .  A
N2998      O3010   1.262       .  A
C3000      C3001   1.401       .  A
C3000      N3005   1.429       .  S
C3001      C3002   1.405       .  A
C3001      H3006   1.084       .  S
C3002      C3003   1.413       .  A
C3003      C3004   1.399       .  A
C3003      N3007   1.430       .  S
C3004      H3008   1.084       .  S
N3005      O3015   1.262       .  A
N3005      O3016   1.262       .  A
N3007      O3013   1.262       .  A
N3007      O3014   1.262       .  A
C3017      C3018   1.406       .  A
C3017      C3022   1.405       .  A
C3017      H3027   1.084       .  S
C3018      C3023   1.482       .  S
C3018      C3019   1.407       .  A
C3019      C3020   1.393       .  A
C3019      N3024   1.430       .  S
C3020      C3021   1.405       .  A
C3020      H3025   1.084       .  S
C3021      C3022   1.413       .  A
C3022      N3026   1.430       .  S
C3023      C3028   1.407       .  A
C3023      C3032   1.404       .  A
N3024      O3039   1.262       .  A
N3024      O3040   1.262       .  A
N3026      O3037   1.262       .  A
N3026      O3038   1.262       .  A
C3028      C3029   1.400       .  A
C3028      N3033   1.429       .  S
C3029      C3030   1.407       .  A
C3029      H3034   1.084       .  S
C3030      C3031   1.412       .  A
C3031      C3032   1.399       .  A
C3031      N3035   1.430       .  S
C3032      H3036   1.084       .  S
N3033      O3043   1.262       .  A
N3033      O3044   1.262       .  A
N3035      O3041   1.262       .  A
N3035      O3042   1.262       .  A
C3045      C3046   1.400       .  A
C3045      C3050   1.396       .  A
C3045      H3055   1.084       .  S
C3046      C3051   1.487       .  S
C3046      C3047   1.410       .  A
C3047      C3048   1.407       .  A
C3047      N3052   1.428       .  S
C3048      C3049   1.407       .  A
C3048      H3053   1.083       .  S
C3049      C3050   1.417       .  A
C3050      N3054   1.430       .  S
C3051      C3056   1.410       .  A
C3051      C3060   1.404       .  A
N3052      O3067   1.262       .  A
N3052      O3068   1.262       .  A
N3054      O3065   1.262       .  A
N3054      O3066   1.262       .  A
C3056      C3057   1.398       .  A
C3056      N3061   1.430       .  S
C3057      C3058   1.405       .  A
C3057      H3062   1.084       .  S
C3058      C3059   1.416       .  A
C3059      C3060   1.405       .  A
C3059      N3063   1.430       .  S
C3060      H3064   1.084       .  S
N3061      O3071   1.262       .  A
N3061      O3072   1.262       .  A
N3063      O3069   1.262       .  A
N3063      O3070   1.262       .  A
C3073      C3074   1.403       .  A
C3073      C3078   1.406       .  A
C3073      H3083   1.084       .  S
C3074      C3079   1.478       .  S
C3074      C3075   1.406       .  A
C3075      C3076   1.394       .  A
C3075      N3080   1.429       .  S
C3076      C3077   1.404       .  A
C3076      H3081   1.084       .  S
C3077      C3078   1.414       .  A
C3078      N3082   1.433       .  S
C3079      C3084   1.408       .  A
C3079      C3088   1.400       .  A
N3080      O3095   1.262       .  A
N3080      O3096   1.262       .  A
N3082      O3093   1.262       .  A
N3082      O3094   1.262       .  A
C3084      C3085   1.401       .  A
C3084      N3089   1.429       .  S
C3085      C3086   1.406       .  A
C3085      H3090   1.084       .  S
C3086      C3087   1.414       .  A
C3087      C3088   1.396       .  A
C3087      N3091   1.431       .  S
C3088      H3092   1.084       .  S
N3089      O3099   1.262       .  A
N3089      O3100   1.262       .  A
N3091      O3097   1.262       .  A
N3091      O3098   1.262       .  A
C3101      C3102   1.402       .  A
C3101      C3106   1.398       .  A
C3101      H3111   1.084       .  S
C3102      C3107   1.483       .  S
C3102      C3103   1.408       .  A
C3103      C3104   1.402       .  A
C3103      N3108   1.429       .  S
C3104      C3105   1.408       .  A
C3104      H3109   1.084       .  S
C3105      C3106   1.415       .  A
C3106      N3110   1.430       .  S
C3107      C3112   1.407       .  A
C3107      C3116   1.404       .  A
N3108      O3123   1.262       .  A
N3108      O3124   1.262       .  A
N3110      O3121   1.262       .  A
N3110      O3122   1.262       .  A
C3112      C3113   1.396       .  A
C3112      N3117   1.430       .  S
C3113      C3114   1.406       .  A
C3113      H3118   1.084       .  S
C3114      C3115   1.415       .  A
C3115      C3116   1.404       .  A
C3115      N3119   1.429       .  S
C3116      H3120   1.084       .  S
N3117      O3127   1.262       .  A
N3117      O3128   1.262       .  A
N3119      O3125   1.262       .  A
N3119      O3126   1.262       .  A
C3129      C3130   1.401       .  A
C3129      C3134   1.401       .  A
C3129      H3139   1.084       .  S
C3130      C3135   1.482       .  S
C3130      C3131   1.408       .  A
C3131      C3132   1.405       .  A
C3131      N3136   1.428       .  S
C3132      C3133   1.406       .  A
C3132      H3137   1.084       .  S
C3133      C3134   1.413       .  A
C3134      N3138   1.430       .  S
C3135      C3140   1.406       .  A
C3135      C3144   1.403       .  A
N3136      O3151   1.261       .  A
N3136      O3152   1.262       .  A
N3138      O3149   1.262       .  A
N3138      O3150   1.262       .  A
C3140      C3141   1.399       .  A
C3140      N3145   1.429       .  S
C3141      C3142   1.405       .  A
C3141      H3146   1.084       .  S
C3142      C3143   1.415       .  A
C3143      C3144   1.406       .  A
C3143      N3147   1.430       .  S
C3144      H3148   1.084       .  S
N3145      O3155   1.262       .  A
N3145      O3156   1.262       .  A
N3147      O3153   1.262       .  A
N3147      O3154   1.262       .  A
C3157      C3158   1.402       .  A
C3157      C3162   1.406       .  A
C3157      H3167   1.084       .  S
C3158      C3163   1.482       .  S
C3158      C3159   1.407       .  A
C3159      C3160   1.397       .  A
C3159      N3164   1.429       .  S
C3160      C3161   1.406       .  A
C3160      H3165   1.083       .  S
C3161      C3162   1.417       .  A
C3162      N3166   1.430       .  S
C3163      C3168   1.410       .  A
C3163      C3172   1.401       .  A
N3164      O3179   1.262       .  A
N3164      O3180   1.262       .  A
N3166      O3177   1.262       .  A
N3166      O3178   1.262       .  A
C3168      C3169   1.407       .  A
C3168      N3173   1.429       .  S
C3169      C3170   1.406       .  A
C3169      H3174   1.084       .  S
C3170      C3171   1.410       .  A
C3171      C3172   1.397       .  A
C3171      N3175   1.429       .  S
C3172      H3176   1.084       .  S
N3173      O3183   1.262       .  A
N3173      O3184   1.262       .  A
N3175      O3181   1.262       .  A
N3175      O3182   1.262       .  A
C3185      C3186   1.404       .  A
C3185      C3190   1.406       .  A
C3185      H3195   1.084       .  S
C3186      C3191   1.481       .  S
C3186      C3187   1.406       .  A
C3187      C3188   1.394       .  A
C3187      N3192   1.429       .  S
C3188      C3189   1.404       .  A
C3188      H3193   1.084       .  S
C3189      C3190   1.415       .  A
C3190      N3194   1.429       .  S
C3191      C3196   1.408       .  A
C3191      C3200   1.401       .  A
N3192      O3207   1.262       .  A
N3192      O3208   1.262       .  A
N3194      O3205   1.262       .  A
N3194      O3206   1.262       .  A
C3196      C3197   1.405       .  A
C3196      N3201   1.429       .  S
C3197      C3198   1.407       .  A
C3197      H3202   1.084       .  S
C3198      C3199   1.413       .  A
C3199      C3200   1.396       .  A
C3199      N3203   1.430       .  S
C3200      H3204   1.084       .  S
N3201      O3211   1.262       .  A
N3201      O3212   1.262       .  A
N3203      O3209   1.262       .  A
N3203      O3210   1.262       .  A
C3213      C3214   1.403       .  A
C3213      C3218   1.401       .  A
C3213      H3223   1.084       .  S
C3214      C3219   1.487       .  S
C3214      C3215   1.408       .  A
C3215      C3216   1.402       .  A
C3215      N3220   1.428       .  S
C3216      C3217   1.408       .  A
C3216      H3221   1.083       .  S
C3217      C3218   1.416       .  A
C3218      N3222   1.431       .  S
C3219      C3224   1.409       .  A
C3219      C3228   1.405       .  A
N3220      O3235   1.262       .  A
N3220      O3236   1.262       .  A
N3222      O3233   1.262       .  A
N3222      O3234   1.262       .  A
C3224      C3225   1.398       .  A
C3224      N3229   1.430       .  S
C3225      C3226   1.404       .  A
C3225      H3230   1.084       .  S
C3226      C3227   1.414       .  A
C3227      C3228   1.405       .  A
C3227      N3231   1.430       .  S
C3228      H3232   1.083       .  S
N3229      O3239   1.262       .  A
N3229      O3240   1.262       .  A
N3231      O3237   1.262       .  A
N3231      O3238   1.262       .  A
C3241      C3242   1.403       .  A
C3241      C3246   1.397       .  A
C3241      H3251   1.084       .  S
C3242      C3247   1.484       .  S
C3242      C3243   1.409       .  A
C3243      C3244   1.402       .  A
C3243      N3248   1.429       .  S
C3244      C3245   1.407       .  A
C3244      H3249   1.084       .  S
C3245      C3246   1.412       .  A
C3246      N3250   1.430       .  S
C3247      C3252   1.408       .  A
C3247      C3256   1.405   1_655  A
N3248      O3263   1.262   1_655  A
N3248      O3264   1.262       .  A
N3250      O3261   1.262       .  A
N3250      O3262   1.262       .  A
C3252      C3253   1.394       .  A
C3252      N3257   1.430       .  S
C3253      C3254   1.405   1_655  A
C3253      H3258   1.084       .  S
C3254      C3255   1.415       .  A
C3255      C3256   1.405       .  A
C3255      N3259   1.430       .  S
C3256      H3260   1.083       .  S
N3257      O3267   1.262       .  A
N3257      O3268   1.262       .  A
N3259      O3265   1.262       .  A
N3259      O3266   1.262       .  A
C3269      C3270   1.405   1_455  A
C3269      C3274   1.406       .  A
C3269      H3279   1.083       .  S
C3270      C3275   1.483       .  S
C3270      C3271   1.408       .  A
C3271      C3272   1.393       .  A
C3271      N3276   1.431       .  S
C3272      C3273   1.406   1_655  A
C3272      H3277   1.084       .  S
C3273      C3274   1.415       .  A
C3274      N3278   1.429       .  S
C3275      C3280   1.409       .  A
C3275      C3284   1.403       .  A
N3276      O3291   1.262       .  A
N3276      O3292   1.262       .  A
N3278      O3289   1.262       .  A
N3278      O3290   1.262       .  A
C3280      C3281   1.403       .  A
C3280      N3285   1.429       .  S
C3281      C3282   1.406       .  A
C3281      H3286   1.084       .  S
C3282      C3283   1.411       .  A
C3283      C3284   1.396       .  A
C3283      N3287   1.430       .  S
C3284      H3288   1.084       .  S
N3285      O3295   1.262   1_655  A
N3285      O3296   1.262       .  A
N3287      O3293   1.262       .  A
N3287      O3294   1.262       .  A
C3297      C3298   1.400       .  A
C3297      C3302   1.396       .  A
C3297      H3307   1.084       .  S
C3298      C3303   1.477       .  S
C3298      C3299   1.408       .  A
C3299      C3300   1.402       .  A
C3299      N3304   1.429       .  S
C3300      C3301   1.404       .  A
C3300      H3305   1.084       .  S
C3301      C3302   1.412       .  A
C3302      N3306   1.431       .  S
C3303      C3308   1.408       .  A
C3303      C3312   1.402       .  A
N3304      O3319   1.262       .  A
N3304      O3320   1.262       .  A
N3306      O3317   1.262       .  A
N3306      O3318   1.262       .  A
C3308      C3309   1.396       .  A
C3308      N3313   1.431       .  S
C3309      C3310   1.404       .  A
C3309      H3314   1.084       .  S
C3310      C3311   1.416       .  A
C3311      C3312   1.401       .  A
C3311      N3315   1.430       .  S
C3312      H3316   1.084       .  S
N3313      O3323   1.262       .  A
N3313      O3324   1.262       .  A
N3315      O3321   1.262       .  A
N3315      O3322   1.262       .  A
C3325      C3326   1.401       .  A
C3325      C3330   1.395       .  A
C3325      H3335   1.084       .  S
C3326      C3331   1.476       .  S
C3326      C3327   1.408       .  A
C3327      C3328   1.401       .  A
C3327      N3332   1.428       .  S
C3328      C3329   1.404       .  A
C3328      H3333   1.084       .  S
C3329      C3330   1.411       .  A
C3330      N3334   1.430       .  S
C3331      C3336   1.407       .  A
C3331      C3340   1.401       .  A
N3332      O3347   1.262       .  A
N3332      O3348   1.262       .  A
N3334      O3345   1.262       .  A
N3334      O3346   1.262       .  A
C3336      C3337   1.394       .  A
C3336      N3341   1.430       .  S
C3337      C3338   1.405       .  A
C3337      H3342   1.084       .  S
C3338      C3339   1.416       .  A
C3339      C3340   1.402       .  A
C3339      N3343   1.429       .  S
C3340      H3344   1.084       .  S
N3341      O3351   1.262       .  A
N3341      O3352   1.262       .  A
N3343      O3349   1.262       .  A
N3343      O3350   1.262       .  A
C3353      C3354   1.400       .  A
C3353      C3358   1.397       .  A
C3353      H3363   1.084       .  S
C3354      C3359   1.484       .  S
C3354      C3355   1.409       .  A
C3355      C3356   1.402       .  A
C3355      N3360   1.431       .  S
C3356      C3357   1.410       .  A
C3356      H3361   1.083       .  S
C3357      C3358   1.420       .  A
C3358      N3362   1.430       .  S
C3359      C3364   1.415       .  A
C3359      C3368   1.403       .  A
N3360      O3375   1.262       .  A
N3360      O3376   1.262       .  A
N3362      O3373   1.262       .  A
N3362      O3374   1.262       .  A
C3364      C3365   1.406       .  A
C3364      N3369   1.434       .  S
C3365      C3366   1.404       .  A
C3365      H3370   1.084       .  S
C3366      C3367   1.409       .  A
C3367      C3368   1.396       .  A
C3367      N3371   1.429       .  S
C3368      H3372   1.084       .  S
N3369      O3379   1.263       .  A
N3369      O3380   1.262       .  A
N3371      O3377   1.262       .  A
N3371      O3378   1.262       .  A
C3381      C3382   1.402       .  A
C3381      C3386   1.404       .  A
C3381      H3391   1.084       .  S
C3382      C3387   1.475       .  S
C3382      C3383   1.406       .  A
C3383      C3384   1.397       .  A
C3383      N3388   1.428       .  S
C3384      C3385   1.403       .  A
C3384      H3389   1.084       .  S
C3385      C3386   1.413       .  A
C3386      N3390   1.431       .  S
C3387      C3392   1.406       .  A
C3387      C3396   1.397       .  A
N3388      O3403   1.262       .  A
N3388      O3404   1.262       .  A
N3390      O3401   1.262       .  A
N3390      O3402   1.262       .  A
C3392      C3393   1.405       .  A
C3392      N3397   1.428       .  S
C3393      C3394   1.408       .  A
C3393      H3398   1.084       .  S
C3394      C3395   1.415       .  A
C3395      C3396   1.396       .  A
C3395      N3399   1.429       .  S
C3396      H3400   1.084       .  S
N3397      O3407   1.261       .  A
N3397      O3408   1.262       .  A
N3399      O3405   1.262       .  A
N3399      O3406   1.262       .  A
