geometry optimzed in LAMMPS
_audit_creation_date              2020-11-30 
_audit_creation_method            'lammps2cif' 
_symmetry_space_group_name_H-M    'P1' 
_symmetry_Int_Tables_number       1 
_symmetry_cell_setting            triclinic 
loop_ 
_symmetry_equiv_pos_as_xyz 
  x,y,z 
_cell_length_a                    45.20967199 
_cell_length_b                    45.22251218077344 
_cell_length_c                    45.149833014877714 
_cell_angle_alpha                 90.0016211973552 
_cell_angle_beta                  90.26452169730312 
_cell_angle_gamma                 90.17287679573845 
loop_ 
_atom_site_label 
_atom_site_type_symbol 
_atom_site_fract_x 
_atom_site_fract_y 
_atom_site_fract_z 
_atom_site_charge 
Zn1        Zn  0.52550223  0.47531789  0.03122336     1.49700
Zn2        Zn  0.52515923  0.52418869  0.98005389     1.49400
Zn3        Zn  0.47560792  0.47332815  0.98034075     1.49100
Zn4        Zn  0.47423372  0.52418360  0.03007873     1.49500
O5          O  0.50004652  0.49930019  0.00542248    -1.84200
O6          O  0.56880112  0.48396358  0.02389910    -0.74800
O7          O  0.51784200  0.51574460  0.93639576    -0.74600
O8          O  0.48460278  0.43016853  0.98884675    -0.74200
O9          O  0.56883492  0.51751495  0.98830130    -0.74800
O10         O  0.51904120  0.43157521  0.02376916    -0.74400
O11         O  0.48370456  0.48059595  0.93668311    -0.75000
O12         O  0.43073540  0.51557460  0.02160805    -0.74400
O13         O  0.51679361  0.56737197  0.98757910    -0.75200
O14         O  0.43176188  0.48039173  0.98742389    -0.74600
O15         O  0.48192904  0.56769728  0.02189209    -0.75000
O16         O  0.48170803  0.51699894  0.07398389    -0.74900
O17         O  0.51723769  0.48350575  0.07450971    -0.74700
C18         C  0.58284061  0.50094366  0.00637748     0.77100
C19         C  0.50091640  0.49782080  0.92249210     0.77600
C20         C  0.50232346  0.41684423  0.00639380     0.76500
C21         C  0.41728239  0.49779763  0.00414675     0.76900
C22         C  0.49943237  0.58149936  0.00464835     0.78000
C23         C  0.49941490  0.50028755  0.08830816     0.77100
Zn24       Zn  0.47356067  0.97839939  0.47232744     1.49700
Zn25       Zn  0.52091053  0.97895523  0.52551735     1.49400
Zn26       Zn  0.52269331  0.02925498  0.47472268     1.49100
Zn27       Zn  0.47107942  0.02862397  0.52328168     1.49500
O28         O  0.49704422  0.00378574  0.49893988    -1.84200
O29         O  0.48121289  0.93459875  0.48032589    -0.74800
O30         O  0.56465214  0.98636124  0.51904458    -0.74600
O31         O  0.51571626  0.02318989  0.43044306    -0.74200
O32         O  0.51340169  0.93552298  0.51744389    -0.74800
O33         O  0.48280552  0.98695554  0.42910617    -0.74400
O34         O  0.56550975  0.01989032  0.48326053    -0.75000
O35         O  0.48012657  0.07196033  0.51719029    -0.74400
O36         O  0.51133932  0.98668283  0.56883991    -0.75200
O37         O  0.51605824  0.07265318  0.48410179    -0.74600
O38         O  0.47591998  0.02037481  0.56731871    -0.75000
O39         O  0.42829266  0.02158676  0.51217989    -0.74900
O40         O  0.42993216  0.98640815  0.47796570    -0.74700
C41         C  0.49747415  0.92107031  0.49911830     0.77100
C42         C  0.57901492  0.00294387  0.50130057     0.77600
C43         C  0.49948016  0.00536647  0.41568364     0.76500
C44         C  0.49834673  0.08628720  0.50123497     0.76900
C45         C  0.49299945  0.00347352  0.58206538     0.78000
C46         C  0.41525194  0.00408642  0.49418196     0.77100
Zn47       Zn  0.97247526  0.47812623  0.52619298     1.49700
Zn48       Zn  0.02253200  0.47618749  0.47628797     1.49400
Zn49       Zn  0.97407841  0.52796542  0.47574237     1.49100
Zn50       Zn  0.02446590  0.52717605  0.52575715     1.49500
O51         O  0.99840422  0.50234406  0.50103902    -1.84200
O52         O  0.97853655  0.43427497  0.51850602    -0.74800
O53         O  0.01557352  0.48469108  0.43284837    -0.74600
O54         O  0.93053390  0.52033813  0.48220764    -0.74200
O55         O  0.01272666  0.43291606  0.48359200    -0.74800
O56         O  0.92921150  0.48704259  0.51827759    -0.74400
O57         O  0.98256215  0.52086109  0.43238430    -0.75000
O58         O  0.01801358  0.57103963  0.51780677    -0.74400
O59         O  0.06618752  0.48219075  0.48475995    -0.75200
O60         O  0.98186255  0.57116862  0.48437363    -0.74600
O61         O  0.06747369  0.51764820  0.51878853    -0.75000
O62         O  0.01704208  0.51948687  0.56907812    -0.74900
O63         O  0.98095516  0.48597814  0.56953291    -0.74700
C64         C  0.99490792  0.41961796  0.50095385     0.77100
C65         C  0.99937349  0.50296530  0.41871615     0.77600
C66         C  0.91602281  0.50379980  0.49977714     0.76500
C67         C  0.99988226  0.58496519  0.50120424     0.76900
C68         C  0.08061886  0.49934067  0.50197476     0.78000
C69         C  0.99938152  0.50261219  0.58307991     0.77100
Zn70       Zn  0.97675337  0.97593302  0.01927686     1.49700
Zn71       Zn  0.02749863  0.02575645  0.01930705     1.49400
Zn72       Zn  0.02624684  0.97532687  0.96869447     1.49100
Zn73       Zn  0.97782845  0.02683172  0.96894230     1.49500
O74         O  0.00206694  0.00089859  0.99411270    -1.84200
O75         O  0.98473323  0.98352276  0.06303008    -0.74800
O76         O  0.07044227  0.01604426  0.01233812    -0.74600
O77         O  0.01702326  0.93209474  0.97551422    -0.74200
O78         O  0.01873140  0.01913478  0.06292735    -0.74800
O79         O  0.98377600  0.93217544  0.01153128    -0.74400
O80         O  0.06989352  0.98151053  0.97735145    -0.75000
O81         O  0.98620718  0.02040908  0.92555711    -0.74400
O82         O  0.02197781  0.06942900  0.01056422    -0.75200
O83         O  0.01873448  0.98368144  0.92522095    -0.74600
O84         O  0.98552867  0.07008979  0.97749415    -0.75000
O85         O  0.93449101  0.01860572  0.97517236    -0.74900
O86         O  0.93350550  0.98448346  0.01061601    -0.74700
C87         C  0.00175282  0.00140813  0.07682703     0.77100
C88         C  0.08399559  0.99841075  0.99513133     0.77600
C89         C  0.00005114  0.91829429  0.99322798     0.76500
C90         C  0.00259575  0.00236729  0.91161077     0.76900
C91         C  0.00420443  0.08359781  0.99385811     0.78000
C92         C  0.92021773  0.00144618  0.99233472     0.77100
C93         C  0.75705569  0.47899832  0.01938798     0.80200
N94         N  0.72704073  0.48085505  0.01993100    -0.78100
C95         C  0.71237446  0.50009724  0.00192775     0.82600
N96         N  0.72842621  0.51766367  0.98360157    -0.78100
C97         C  0.75839920  0.51574119  0.98250687     0.82700
N98         N  0.77259835  0.49635037  0.00048611    -0.79800
C99         C  0.24270368  0.52111707  0.02032832     0.80200
N100        N  0.27271297  0.51999730  0.02125749    -0.78100
C101        C  0.28784351  0.50055061  0.00412732     0.82600
N102        N  0.27234766  0.48243803  0.98549093    -0.78100
C103        C  0.24221408  0.48351116  0.98420681     0.82700
N104        N  0.22765304  0.50261160  0.00205172    -0.79800
C105        C  0.98263582  0.47897366  0.24540442     0.80200
N106        N  0.00048620  0.49773621  0.23024803    -0.78100
C107        C  0.01860788  0.51675632  0.24491726     0.82600
N108        N  0.01907284  0.51675076  0.27500902    -0.78100
C109        C  0.00166211  0.49772180  0.29039171     0.82700
N110        N  0.98352633  0.47880443  0.27551065    -0.79800
C111        C  0.02078534  0.25846182  0.98130641     0.80200
N112        N  0.00234700  0.27192994  0.00055426    -0.78100
C113        C  0.98378628  0.25579334  0.01752286     0.82600
N114        N  0.98362042  0.22588107  0.01545537    -0.78100
C115        C  0.00213251  0.21195886  0.99641554     0.82700
N116        N  0.02097558  0.22836311  0.97959428    -0.79800
C117        C  0.97974965  0.51900610  0.75692585     0.80200
N118        N  0.97998413  0.51965063  0.72688325    -0.78100
C119        C  0.99847876  0.50194093  0.71141427     0.82600
N120        N  0.01732717  0.48388747  0.72636272    -0.78100
C121        C  0.01727189  0.48296939  0.75648776     0.82700
N122        N  0.99852030  0.50076489  0.77160516    -0.79800
Zn123      Zn  0.12648296  0.37630518  0.87427993     1.49700
Zn124      Zn  0.14247761  0.35882918  0.80684180     1.49400
Zn125      Zn  0.19225049  0.35839293  0.85557775     1.49100
Zn126      Zn  0.14331570  0.30885518  0.85450516     1.49500
O127        O  0.15069555  0.35087278  0.84820360    -1.84200
O128        O  0.09934690  0.40303782  0.84877273    -0.74800
O129        O  0.17835585  0.37222030  0.78510042    -0.74600
O130        O  0.19827255  0.38844921  0.88662907    -0.74200
O131        O  0.11212549  0.38956023  0.80325141    -0.74800
O132        O  0.15349025  0.40202091  0.90111480    -0.74400
O133        O  0.21352302  0.37114661  0.81915871    -0.75000
O134        O  0.17972499  0.28686270  0.86740001    -0.74400
O135        O  0.12776211  0.32326875  0.78467553    -0.75200
O136        O  0.21306053  0.32245218  0.86954653    -0.74600
O137        O  0.12808478  0.28782705  0.81818085    -0.75000
O138        O  0.11426466  0.30437853  0.88641704    -0.74900
O139        O  0.10139839  0.34949410  0.90122689    -0.74700
C140        C  0.09660672  0.40514078  0.82061867     0.77100
C141        C  0.20531441  0.37530211  0.79258581     0.77600
C142        C  0.18168750  0.40352648  0.90335329     0.76500
C143        C  0.20606603  0.29547302  0.87245381     0.76900
C144        C  0.12360636  0.29637582  0.79175130     0.78000
C145        C  0.09983387  0.32131516  0.90341506     0.77100
C146        C  0.98478800  0.74457857  0.97589192     0.80200
N147        N  0.00226302  0.72970852  0.99524467    -0.78100
C148        C  0.02009577  0.74450416  0.01441325     0.82600
N149        N  0.01967760  0.77460281  0.01478811    -0.78100
C150        C  0.00202522  0.78981338  0.99564096     0.82700
N151        N  0.98478543  0.77461657  0.97610123    -0.79800
Zn152      Zn  0.82140048  0.67308592  0.82432691     1.49700
Zn153      Zn  0.88761127  0.65993071  0.83929184     1.49400
Zn154      Zn  0.83897526  0.66006651  0.89073278     1.49100
Zn155      Zn  0.83850092  0.60781625  0.84121205     1.49500
O156        O  0.84680245  0.64984258  0.84928561    -1.84200
O157        O  0.84364485  0.69509855  0.79375558    -0.74800
O158        O  0.90955990  0.67550409  0.87461047    -0.74600
O159        O  0.80829086  0.69290229  0.89459592    -0.74200
O160        O  0.89057813  0.69133467  0.80773992    -0.74800
O161        O  0.79951832  0.70289410  0.84723169    -0.74400
O162        O  0.87634904  0.67512961  0.91074935    -0.75000
O163        O  0.82515886  0.58757705  0.87885620    -0.74400
O164        O  0.90798535  0.62446556  0.82275240    -0.75200
O165        O  0.82336261  0.62415196  0.91186105    -0.74600
O166        O  0.87472347  0.58810781  0.82431728    -0.75000
O167        O  0.80503216  0.60216134  0.81103509    -0.74900
O168        O  0.79169005  0.64874412  0.80353760    -0.74700
C169        C  0.87073642  0.70168147  0.79069664     0.77100
C170        C  0.90229393  0.68074961  0.90129471     0.77600
C171        C  0.79568157  0.70816505  0.87451065     0.76500
C172        C  0.81884437  0.59727644  0.90459513     0.76900
C173        C  0.90026228  0.59790980  0.81745290     0.78000
C174        C  0.78812681  0.62128572  0.79911043     0.77100
Zn175      Zn  0.84343786  0.33663273  0.10899786     1.49700
Zn176      Zn  0.82645014  0.32144701  0.17481196     1.49400
Zn177      Zn  0.89275479  0.33625493  0.16129476     1.49100
Zn178      Zn  0.84275276  0.38702275  0.15949187     1.49500
O179        O  0.85168850  0.34566549  0.15081813    -1.84200
O180        O  0.81503779  0.30182543  0.10395179    -0.74800
O181        O  0.84872714  0.30023877  0.20600626    -0.74600
O182        O  0.91355652  0.31996351  0.12575765    -0.74200
O183        O  0.80656241  0.29082863  0.15102459    -0.74800
O184        O  0.88090020  0.32347986  0.08914242    -0.74400
O185        O  0.89600473  0.30566549  0.19430620    -0.75000
O186        O  0.87896171  0.40755444  0.17569784    -0.74400
O187        O  0.79599303  0.34452057  0.19557681    -0.75200
O188        O  0.91379299  0.37284268  0.17619343    -0.74600
O189        O  0.81108225  0.39104789  0.19076437    -0.75000
O190        O  0.82680367  0.40735839  0.12283540    -0.74900
O191        O  0.82606605  0.37232766  0.08824650    -0.74700
C192        C  0.80355443  0.28532506  0.12365715     0.77100
C193        C  0.87584356  0.29469964  0.21056972     0.77600
C194        C  0.90648026  0.31629123  0.09869718     0.76500
C195        C  0.90525310  0.39913731  0.18147740     0.76900
C196        C  0.79370821  0.37178144  0.20161276     0.78000
C197        C  0.82068510  0.39869504  0.09660243     0.77100
Zn198      Zn  0.15795088  0.61070978  0.16129606     1.49700
Zn199      Zn  0.17207555  0.67621217  0.17722038     1.49400
Zn200      Zn  0.15657869  0.66100413  0.11091499     1.49100
Zn201      Zn  0.10606862  0.66041672  0.16115439     1.49500
O202        O  0.14773083  0.65178638  0.15230572    -1.84200
O203        O  0.18835414  0.60668560  0.19450835    -0.74800
O204        O  0.20299131  0.69675890  0.15426730    -0.74600
O205        O  0.17237878  0.62492230  0.09013632    -0.74200
O206        O  0.19209174  0.65336385  0.20905682    -0.74800
O207        O  0.17373553  0.59015968  0.12502787    -0.74400
O208        O  0.18861563  0.69207068  0.10736504    -0.75000
O209        O  0.08510884  0.67485387  0.12421580    -0.74400
O210        O  0.14858666  0.70767124  0.19614002    -0.75200
O211        O  0.12043444  0.67691623  0.09008678    -0.74600
O212        O  0.10161131  0.69463691  0.19020338    -0.75000
O213        O  0.08647018  0.62391550  0.17849135    -0.74900
O214        O  0.12204509  0.58995775  0.17664769    -0.74700
C215        C  0.19791295  0.62614488  0.21254555     0.77100
C216        C  0.20590831  0.70264639  0.12697701     0.77600
C217        C  0.17853858  0.59875536  0.09860255     0.76500
C218        C  0.09394516  0.68168693  0.09832118     0.76900
C219        C  0.12125258  0.71207962  0.20053936     0.78000
C220        C  0.09597509  0.59782948  0.18358445     0.77100
C221        C  0.52382322  0.24236974  0.02126240     0.80200
N222        N  0.50502887  0.22669330  0.00390746    -0.78100
C223        C  0.48553541  0.24054660  0.98591841     0.82600
N224        N  0.48468489  0.27064226  0.98569945    -0.78100
C225        C  0.50365309  0.28695334  0.00268754     0.82700
N226        N  0.52332888  0.27241097  0.02038936    -0.79800
C227        C  0.51984167  0.75574490  0.97783103     0.80200
N228        N  0.52025816  0.72577694  0.97896799    -0.78100
C229        C  0.50284823  0.71077666  0.99825217     0.82600
N230        N  0.48537529  0.72651808  0.01693677    -0.78100
C231        C  0.48500920  0.75663993  0.01643017     0.82700
N232        N  0.50246200  0.77108569  0.99677521    -0.79800
C233        C  0.47934171  0.98493193  0.23964759     0.80200
N234        N  0.49825368  0.00294711  0.22503501    -0.78100
C235        C  0.51690584  0.02094421  0.24023839     0.82600
N236        N  0.51688289  0.02045706  0.27039764    -0.78100
C237        C  0.49800447  0.00244932  0.28551472     0.82700
N238        N  0.47943184  0.98461860  0.26975309    -0.79800
C239        C  0.25785300  0.00953333  0.98053628     0.80200
N240        N  0.27204953  0.99092643  0.99946420    -0.78100
C241        C  0.25655512  0.97247587  0.01752785     0.82600
N242        N  0.22650942  0.97252928  0.01608055    -0.78100
C243        C  0.21203018  0.99120706  0.99759378     0.82700
N244        N  0.22781937  0.00989338  0.98030596    -0.79800
C245        C  0.74711848  0.98381281  0.97204925     0.80200
N246        N  0.77717562  0.98414882  0.97265038    -0.78100
C247        C  0.79203216  0.00168782  0.99214061     0.82600
N248        N  0.77657981  0.01915669  0.01096624    -0.78100
C249        C  0.74653368  0.01918761  0.01043544     0.82700
N250        N  0.73200646  0.00124717  0.99117760    -0.79800
Zn251      Zn  0.60966591  0.83853514  0.83610472     1.49700
Zn252      Zn  0.66045933  0.84107316  0.88621656     1.49400
Zn253      Zn  0.67671551  0.82597736  0.82037869     1.49100
Zn254      Zn  0.65795233  0.89108732  0.83467124     1.49500
O255        O  0.65095292  0.84938048  0.84461299    -1.84200
O256        O  0.59031848  0.82096853  0.87220902    -0.74800
O257        O  0.69275299  0.81016049  0.89088369    -0.74600
O258        O  0.65370965  0.80215204  0.79177161    -0.74200
O259        O  0.62489303  0.82477472  0.90720399    -0.74800
O260        O  0.60633959  0.80883108  0.80258846    -0.74400
O261        O  0.70286480  0.79973175  0.84397927    -0.75000
O262        O  0.68857159  0.89700573  0.80233825    -0.74400
O263        O  0.67556048  0.87808840  0.90610849    -0.75200
O264        O  0.70360834  0.85076546  0.79660103    -0.74600
O265        O  0.67484034  0.91197617  0.87022781    -0.75000
O266        O  0.62020442  0.91021414  0.82069286    -0.74900
O267        O  0.58686244  0.87418767  0.82243692    -0.74700
C268        C  0.59917538  0.81683354  0.89872421     0.77100
C269        C  0.70737601  0.79606538  0.87149090     0.77600
C270        C  0.62646348  0.79725334  0.78681369     0.76500
C271        C  0.70581171  0.87810184  0.79085411     0.76900
C272        C  0.68093736  0.90408996  0.89663815     0.78000
C273        C  0.59393525  0.90075242  0.81634721     0.77100
C274        C  0.47922557  0.01884015  0.75786085     0.80200
N275        N  0.49810877  0.00030832  0.77188269    -0.78100
C276        C  0.51520692  0.98153844  0.75622127     0.82600
N277        N  0.51325559  0.98100887  0.72623428    -0.78100
C278        C  0.49427561  0.99921116  0.71161400     0.82700
N279        N  0.47722990  0.01812792  0.72770293    -0.79800
Zn280      Zn  0.35718400  0.19107418  0.86286290     1.49700
Zn281      Zn  0.37585890  0.12405524  0.87899885     1.49400
Zn282      Zn  0.30837828  0.14146498  0.86353472     1.49100
Zn283      Zn  0.35523347  0.14361114  0.81267008     1.49500
O284        O  0.34960926  0.14966664  0.85485034    -1.84200
O285        O  0.38597584  0.19541127  0.89555523    -0.74800
O286        O  0.35079679  0.09513348  0.90428448    -0.74600
O287        O  0.28640120  0.17688029  0.87821271    -0.74200
O288        O  0.40168314  0.15018689  0.90673855    -0.74800
O289        O  0.32024042  0.21188318  0.87441113    -0.74400
O290        O  0.30528888  0.10940254  0.89262656    -0.75000
O291        O  0.31773812  0.13267770  0.79132533    -0.74400
O292        O  0.40154469  0.09900141  0.85084211    -0.75200
O293        O  0.28553159  0.12880302  0.82770505    -0.74600
O294        O  0.38396136  0.11168581  0.80651879    -0.75000
O295        O  0.37043389  0.17975905  0.79212550    -0.74900
O296        O  0.37265809  0.21322753  0.82754609    -0.74700
C297        C  0.40207664  0.17822796  0.91085148     0.77100
C298        C  0.32273414  0.09243826  0.90668287     0.77600
C299        C  0.29378531  0.20392568  0.87966113     0.76500
C300        C  0.29159197  0.12772872  0.80032665     0.76900
C301        C  0.40083063  0.09605698  0.82262981     0.78000
C302        C  0.37583454  0.20605294  0.80056505     0.77100
Zn303      Zn  0.37663826  0.86876292  0.12646985     1.49700
Zn304      Zn  0.31077104  0.85202165  0.14841299     1.49400
Zn305      Zn  0.35921681  0.80220130  0.14605259     1.49100
Zn306      Zn  0.36301718  0.85228348  0.19412308     1.49500
O307        O  0.35264662  0.84406981  0.15333583    -1.84200
O308        O  0.34918179  0.89317028  0.09958561    -0.74800
O309        O  0.28838252  0.81599451  0.13558577    -0.74600
O310        O  0.39107396  0.79712712  0.11673661    -0.74200
O311        O  0.30485044  0.88194733  0.11720321    -0.74800
O312        O  0.40347618  0.84202536  0.10125787    -0.74400
O313        O  0.32299553  0.78208407  0.13019134    -0.75000
O314        O  0.37610864  0.81639897  0.21552912    -0.74400
O315        O  0.29171245  0.86652959  0.18575122    -0.75200
O316        O  0.37026872  0.78004686  0.18322777    -0.74600
O317        O  0.32891498  0.86710786  0.21773101    -0.75000
O318        O  0.39437300  0.88221750  0.19683214    -0.74900
O319        O  0.40293715  0.89723681  0.15074647    -0.74700
C320        C  0.32107842  0.89618965  0.09922013     0.77100
C321        C  0.29605644  0.78994695  0.12859987     0.77600
C322        C  0.40672398  0.81391944  0.10060360     0.76500
C323        C  0.37630950  0.78904824  0.20923378     0.76900
C324        C  0.30177369  0.87111353  0.21166963     0.78000
C325        C  0.40783109  0.89872338  0.17861930     0.77100
Zn326      Zn  0.68313851  0.16958540  0.17474622     1.49700
Zn327      Zn  0.66674994  0.15521728  0.10849703     1.49400
Zn328      Zn  0.66541305  0.10424509  0.15831669     1.49100
Zn329      Zn  0.61657264  0.15584188  0.15879507     1.49500
O330        O  0.65772686  0.14596344  0.14988390    -1.84200
O331        O  0.71406663  0.19015639  0.15134299    -0.74800
O332        O  0.67987025  0.11862420  0.08691978    -0.74600
O333        O  0.69560554  0.09880018  0.19098875    -0.74200
O334        O  0.70051048  0.18435731  0.10443029    -0.74800
O335        O  0.70370777  0.14524028  0.20495578    -0.74400
O336        O  0.68153697  0.08410034  0.12206124    -0.75000
O337        O  0.59484793  0.12024402  0.17440538    -0.74400
O338        O  0.63172073  0.17373957  0.08857173    -0.75200
O339        O  0.62839949  0.08433182  0.17318500    -0.74600
O340        O  0.59639721  0.17239867  0.12262663    -0.75000
O341        O  0.61344162  0.18822435  0.18952081    -0.74900
O342        O  0.66060653  0.20050546  0.19597459    -0.74700
C343        C  0.71771293  0.19525538  0.12393640     0.77100
C344        C  0.68624172  0.09258799  0.09558508     0.77600
C345        C  0.70769981  0.11765253  0.20807189     0.76500
C346        C  0.60261381  0.09365127  0.17947573     0.76900
C347        C  0.60553868  0.17953254  0.09693159     0.78000
C348        C  0.63331246  0.20481003  0.20070075     0.77100
C349        C  0.51494379  0.48528089  0.26354233     0.80200
N350        N  0.49592945  0.50270640  0.27861788    -0.78100
C351        C  0.47658628  0.52033001  0.26398352     0.82600
N352        N  0.47617849  0.52026941  0.23385230    -0.78100
C353        C  0.49534382  0.50328726  0.21820993     0.82700
N354        N  0.51467112  0.48589774  0.23342565    -0.79800
C355        C  0.74378723  0.48178956  0.47844696     0.80200
N356        N  0.77378897  0.48362344  0.47927500    -0.78100
C357        C  0.78768508  0.50188531  0.49876124     0.82600
N358        N  0.77130806  0.51897478  0.51710959    -0.78100
C359        C  0.74126197  0.51797785  0.51603399     0.82700
N360        N  0.72766620  0.49919801  0.49681403    -0.79800
Zn361      Zn  0.69227340  0.35265986  0.35396754     1.49700
Zn362      Zn  0.63920548  0.30717946  0.35183307     1.49400
Zn363      Zn  0.62659130  0.37434872  0.37111175     1.49100
Zn364      Zn  0.64288369  0.35765286  0.30430798     1.49500
O365        O  0.65014163  0.34823575  0.34562817    -1.84200
O366        O  0.71092258  0.31447486  0.36746744    -0.74800
O367        O  0.60648010  0.30390258  0.38044104    -0.74600
O368        O  0.65398438  0.39937412  0.39712209    -0.74200
O369        O  0.67304954  0.28346128  0.36740189    -0.74800
O370        O  0.69872354  0.38344389  0.38487640    -0.74400
O371        O  0.59913060  0.34958884  0.39711130    -0.75000
O372        O  0.61311528  0.38918845  0.30017053    -0.74400
O373        O  0.62723293  0.28684927  0.31429193    -0.75200
O374        O  0.60131504  0.40230787  0.34597134    -0.74600
O375        O  0.62950920  0.32248746  0.28089543    -0.75000
O376        O  0.67944013  0.37154042  0.28416688    -0.74900
O377        O  0.71453373  0.36544862  0.31778660    -0.74700
C378        C  0.70039674  0.28862162  0.37131561     0.77100
C379        C  0.59331877  0.32193443  0.39740835     0.77600
C380        C  0.68209182  0.40042188  0.39984470     0.76500
C381        C  0.59881394  0.40539570  0.31795532     0.76900
C382        C  0.62498797  0.29557634  0.28767027     0.78000
C383        C  0.70654146  0.37236006  0.29168894     0.77100
C384        C  0.48456568  0.26073335  0.51918437     0.80200
N385        N  0.48553929  0.23072639  0.51975141    -0.78100
C386        C  0.50191385  0.21552357  0.49968456     0.82600
N387        N  0.51703881  0.23092678  0.47875797    -0.78100
C388        C  0.51606157  0.26095754  0.47796758     0.82700
N389        N  0.49983232  0.27572323  0.49825731    -0.79800
C390        C  0.48244319  0.74539662  0.48004891     0.80200
N391        N  0.50217298  0.73148664  0.49785515    -0.78100
C392        C  0.52159578  0.74712766  0.51470268     0.82600
N393        N  0.52089848  0.77724550  0.51389740    -0.78100
C394        C  0.50110077  0.79166416  0.49616436     0.82700
N395        N  0.48175406  0.77544705  0.47962049    -0.79800
Zn396      Zn  0.31637598  0.67434366  0.33189329     1.49700
Zn397      Zn  0.33318990  0.66004492  0.39787789     1.49400
Zn398      Zn  0.33219185  0.60861795  0.34706275     1.49100
Zn399      Zn  0.38318001  0.65807990  0.34746972     1.49500
O400        O  0.34144296  0.65007273  0.35636278    -1.84200
O401        O  0.28969868  0.69960505  0.35536604    -0.74800
O402        O  0.31976989  0.62321000  0.41878114    -0.74600
O403        O  0.29882930  0.60373913  0.31700855    -0.74200
O404        O  0.30002178  0.69028503  0.40250381    -0.74800
O405        O  0.28954576  0.65069804  0.30647266    -0.74400
O406        O  0.31943025  0.58808037  0.38412035    -0.75000
O407        O  0.40343983  0.62160199  0.33194476    -0.74400
O408        O  0.36957600  0.67725572  0.41772740    -0.75200
O409        O  0.36741495  0.58809350  0.32983045    -0.74600
O410        O  0.40463139  0.67408034  0.38349780    -0.75000
O411        O  0.38706372  0.68922693  0.31555240    -0.77700
O412        O  0.34006965  0.70051576  0.30632777    -0.74700
C413        C  0.28500333  0.70360694  0.38271344     0.77100
C414        C  0.31490370  0.59665135  0.41056235     0.77600
C415        C  0.28434007  0.62335482  0.30298134     0.76500
C416        C  0.39399167  0.59594517  0.32497201     0.76900
C417        C  0.39608259  0.68166131  0.40926949     0.78000
C418        C  0.36752296  0.70424119  0.30194466     0.77100
C419        C  0.25467805  0.48052103  0.52512383     0.80200
N420        N  0.22453271  0.47990623  0.52551538    -0.78100
C421        C  0.20862769  0.49777021  0.50719640     0.82600
N422        N  0.22301519  0.51626178  0.48844472    -0.78100
C423        C  0.25297913  0.51712444  0.48808145     0.82700
N424        N  0.26855099  0.49897875  0.50607494    -0.79800
C425        C  0.51675152  0.52041611  0.74632355     0.80200
N426        N  0.51890734  0.51936449  0.77638383    -0.78100
C427        C  0.50151261  0.50086214  0.79255716     0.82600
N428        N  0.48231913  0.48268489  0.77793767    -0.78100
C429        C  0.48002166  0.48344622  0.74792188     0.82700
N430        N  0.49734860  0.50225817  0.73220828    -0.79800
Zn431      Zn  0.32651048  0.32094931  0.67578922     1.49700
Zn432      Zn  0.34284430  0.38795082  0.66249574     1.49400
Zn433      Zn  0.39278318  0.33793986  0.66290621     1.49100
Zn434      Zn  0.34322888  0.33908827  0.61096650     1.49500
O435        O  0.35158391  0.34665708  0.65288797    -1.84200
O436        O  0.29676485  0.34381099  0.69810362    -0.74800
O437        O  0.37844930  0.40867317  0.67966855    -0.74600
O438        O  0.39649238  0.30577227  0.69403245    -0.74200
O439        O  0.31049277  0.39076968  0.69280460    -0.74800
O440        O  0.34935222  0.29690496  0.70462160    -0.74400
O441        O  0.41297822  0.37390165  0.68005168    -0.75000
O442        O  0.38059308  0.32739247  0.59038252    -0.74400
O443        O  0.32722237  0.40962185  0.62679410    -0.75200
O444        O  0.41409270  0.32429596  0.62647277    -0.74600
O445        O  0.32489138  0.37465743  0.59208568    -0.75000
O446        O  0.31411799  0.30561454  0.60422261    -0.74900
O447        O  0.30477163  0.29248530  0.65056913    -0.74700
C448        C  0.29359952  0.37111356  0.70367893     0.77100
C449        C  0.40451743  0.40004501  0.68604032     0.77600
C450        C  0.37671948  0.29235993  0.70885804     0.76500
C451        C  0.40659054  0.32127183  0.59938290     0.76900
C452        C  0.31979948  0.40080847  0.60103151     0.78000
C453        C  0.30125486  0.28904415  0.62290825     0.77100
Zn454      Zn  0.60899387  0.65936773  0.65769290     1.49700
Zn455      Zn  0.65981737  0.65851761  0.60765035     1.49400
Zn456      Zn  0.67649516  0.67366040  0.67344082     1.49100
Zn457      Zn  0.65927270  0.60858218  0.65949222     1.49500
O458        O  0.65068800  0.64977469  0.64924594    -1.84200
O459        O  0.58836157  0.67409326  0.62033837    -0.74800
O460        O  0.69232447  0.68944960  0.60350780    -0.74600
O461        O  0.65352571  0.70409820  0.69375226    -0.74200
O462        O  0.62424277  0.67587760  0.58682126    -0.74800
O463        O  0.60601133  0.69379248  0.68666254    -0.74400
O464        O  0.70670386  0.69533297  0.65019905    -0.75000
O465        O  0.68966609  0.60397548  0.69266188    -0.74400
O466        O  0.67422286  0.62118938  0.58748733    -0.75200
O467        O  0.69732558  0.65088008  0.70459217    -0.74600
O468        O  0.67506103  0.58766507  0.62373769    -0.75000
O469        O  0.62261975  0.58879992  0.67523954    -0.74900
O470        O  0.58800497  0.62368608  0.67582500    -0.74700
C471        C  0.59764948  0.68090465  0.59456255     0.77100
C472        C  0.70929855  0.70106945  0.62284124     0.77600
C473        C  0.62643613  0.70987574  0.69769779     0.76500
C474        C  0.70131752  0.62354289  0.70927643     0.76900
C475        C  0.68020467  0.59532121  0.59709223     0.78000
C476        C  0.59669113  0.59748473  0.68182549     0.77100
C477        C  0.24105869  0.02462063  0.51233874     0.80200
N478        N  0.22624523  0.00430082  0.49594405    -0.78100
C479        C  0.24110255  0.98579839  0.47775790     0.82600
N480        N  0.27107552  0.98780920  0.47609975    -0.78100
C481        C  0.28633120  0.00791801  0.49265998     0.82700
N482        N  0.27102690  0.02625477  0.51082909    -0.79800
C483        C  0.75383226  0.97422171  0.51370782     0.80200
N484        N  0.72389851  0.97563462  0.51592309    -0.78100
C485        C  0.70802073  0.99489471  0.49916895     0.82600
N486        N  0.72280239  0.01344635  0.48059702    -0.78100
C487        C  0.75277804  0.01263509  0.47861326     0.82700
N488        N  0.76812542  0.99284609  0.49511074    -0.79800
C489        C  0.01635577  0.24685015  0.51915447     0.80200
N490        N  0.99718574  0.23099515  0.50220624    -0.78100
C491        C  0.97713851  0.24465748  0.48450835     0.82600
N492        N  0.97588089  0.27472060  0.48407669    -0.78100
C493        C  0.99509738  0.29090738  0.50077622     0.82700
N494        N  0.01516784  0.27688047  0.51830385    -0.79800
C495        C  0.02091231  0.98812541  0.25120151     0.80200
N496        N  0.02089233  0.98815301  0.22103460    -0.78100
C497        C  0.00256144  0.00647964  0.20563104     0.82600
N498        N  0.98397601  0.02455219  0.22076983    -0.78100
C499        C  0.98393567  0.02478862  0.25087864     0.82700
N500        N  0.00262193  0.00672930  0.26590160    -0.79800
C501        C  0.98419774  0.75844325  0.51894534     0.80200
N502        N  0.00153277  0.77338157  0.49961733    -0.78100
C503        C  0.01947440  0.75874088  0.48068393     0.82600
N504        N  0.01988054  0.72865690  0.48100517    -0.78100
C505        C  0.00286023  0.71337599  0.50056707     0.82700
N506        N  0.98498409  0.72840162  0.51943710    -0.79800
Zn507      Zn  0.16064236  0.89153926  0.33593685     1.49700
Zn508      Zn  0.17338101  0.82419094  0.32413334     1.49400
Zn509      Zn  0.15665039  0.84338650  0.38833522     1.49100
Zn510      Zn  0.10747926  0.84442633  0.33543115     1.49500
O511        O  0.14915284  0.85115196  0.34623352    -1.84200
O512        O  0.19514969  0.89299989  0.30764833    -0.74800
O513        O  0.19236748  0.79344374  0.34928829    -0.74600
O514        O  0.17208663  0.88002663  0.40901471    -0.74200
O515        O  0.20615980  0.84536517  0.30434762    -0.74800
O516        O  0.17504783  0.91262488  0.37223792    -0.74400
O517        O  0.18771547  0.81138259  0.39476797    -0.75000
O518        O  0.08587933  0.82663604  0.37045353    -0.74400
O519        O  0.15027130  0.80435209  0.29255381    -0.75200
O520        O  0.11918211  0.82806730  0.40700908    -0.74600
O521        O  0.10331796  0.81577302  0.30083630    -0.75000
O522        O  0.08848596  0.88265079  0.32104023    -0.74900
O523        O  0.12664688  0.91353915  0.31733718    -0.74700
C524        C  0.21176061  0.87225787  0.29864887     0.77100
C525        C  0.19825554  0.79251896  0.37678613     0.77600
C526        C  0.17938795  0.90542116  0.39914717     0.76500
C527        C  0.09351569  0.82135415  0.39717916     0.76900
C528        C  0.12304833  0.80260737  0.28579516     0.78000
C529        C  0.09943005  0.90747583  0.31310276     0.77100
Zn530      Zn  0.82278160  0.17121173  0.32519543     1.49700
Zn531      Zn  0.88931896  0.15923924  0.34369675     1.49400
Zn532      Zn  0.83669339  0.15651546  0.39196775     1.49100
Zn533      Zn  0.84184553  0.10604141  0.34178568     1.49500
O534        O  0.84792224  0.14809034  0.35088995    -1.84200
O535        O  0.84571059  0.20003126  0.30137464    -0.74800
O536        O  0.90805325  0.17397524  0.38169789    -0.74600
O537        O  0.80418747  0.18723636  0.39517568    -0.74200
O538        O  0.89265963  0.19316189  0.31426766    -0.74800
O539        O  0.79397670  0.19486769  0.34770617    -0.74400
O540        O  0.87144421  0.17303734  0.41447659    -0.75000
O541        O  0.82755280  0.08390648  0.37786015    -0.74400
O542        O  0.91202140  0.12488316  0.32613857    -0.75200
O543        O  0.82108047  0.11943467  0.41122820    -0.74600
O544        O  0.87892575  0.08840745  0.32444822    -0.75000
O545        O  0.80977674  0.09989482  0.31102564    -0.74900
O546        O  0.79861200  0.14608342  0.29862237    -0.74700
C547        C  0.87289013  0.20687730  0.29961412     0.77100
C548        C  0.89795730  0.17941196  0.40747342     0.77600
C549        C  0.78917782  0.19973513  0.37488714     0.76500
C550        C  0.81869131  0.09249263  0.40318302     0.76900
C551        C  0.90470220  0.09855240  0.31906638     0.78000
C552        C  0.79496959  0.11840433  0.29591019     0.77100
C553        C  0.02095547  0.01854539  0.73817134     0.80200
N554        N  0.02068059  0.01830069  0.76830539    -0.78100
C555        C  0.00175047  0.00026868  0.78319620     0.82600
N556        N  0.98294419  0.98265543  0.76761247    -0.78100
C557        C  0.98339643  0.98234710  0.73754634     0.82700
N558        N  0.00240788  0.00036449  0.72300330    -0.79800
Zn559      Zn  0.82208562  0.82458139  0.67414046     1.49700
Zn560      Zn  0.88958214  0.83943832  0.66144226     1.49400
Zn561      Zn  0.84159464  0.83771515  0.60823346     1.49100
Zn562      Zn  0.83962936  0.88956352  0.65735914     1.49500
O563        O  0.84848209  0.84791314  0.65004448    -1.84200
O564        O  0.84451796  0.79684493  0.69950047    -0.74800
O565        O  0.91193219  0.82306674  0.62671345    -0.74600
O566        O  0.81167460  0.80422294  0.60378836    -0.74200
O567        O  0.89198646  0.80809702  0.69338639    -0.74800
O568        O  0.79583386  0.79892986  0.65000917    -0.74400
O569        O  0.87949731  0.82340059  0.58954548    -0.75000
O570        O  0.82408918  0.90814033  0.62048960    -0.74400
O571        O  0.91009451  0.87629317  0.67639518    -0.75200
O572        O  0.82484754  0.87289314  0.58610927    -0.74600
O573        O  0.87559784  0.91107946  0.67218616    -0.75000
O574        O  0.80805931  0.89572341  0.68841598    -0.74900
O575        O  0.79726231  0.84937044  0.70050422    -0.74700
C576        C  0.87166736  0.79270585  0.70527584     0.77100
C577        C  0.90516094  0.81764460  0.59985824     0.77600
C578        C  0.79505690  0.79186154  0.62283464     0.76500
C579        C  0.81836568  0.89902061  0.59444417     0.76900
C580        C  0.90150047  0.90290766  0.67960378     0.78000
C581        C  0.79374294  0.87701868  0.70373307     0.77100
Zn582      Zn  0.11051759  0.16056482  0.65748225     1.49700
Zn583      Zn  0.16399472  0.11324074  0.65825080     1.49400
Zn584      Zn  0.16067188  0.16323355  0.60750198     1.49100
Zn585      Zn  0.17582597  0.17966684  0.67356010     1.49500
O586        O  0.15241797  0.15390640  0.64897009    -1.84200
O587        O  0.09201943  0.12313062  0.67303980    -0.74800
O588        O  0.17842286  0.09276958  0.62162071    -0.74600
O589        O  0.12483782  0.18091579  0.58771450    -0.74200
O590        O  0.12925660  0.09105144  0.67493699    -0.74800
O591        O  0.08890300  0.17495664  0.62078010    -0.74400
O592        O  0.17323332  0.12644574  0.58616907    -0.75000
O593        O  0.20600498  0.20091739  0.65005637    -0.74400
O594        O  0.19626802  0.11090099  0.68951079    -0.75200
O595        O  0.19483961  0.19194010  0.60296406    -0.74600
O596        O  0.19792817  0.15760325  0.70452547    -0.75000
O597        O  0.15119466  0.20895859  0.69449556    -0.74900
O598        O  0.10514271  0.19241359  0.68895216    -0.74700
C599        C  0.10237350  0.09778710  0.67970629     0.77100
C600        C  0.18061321  0.10060226  0.59464267     0.77600
C601        C  0.09789419  0.18345537  0.59543307     0.76500
C602        C  0.21107200  0.20402390  0.62261392     0.76900
C603        C  0.20569355  0.13079078  0.70711913     0.78000
C604        C  0.12377616  0.21044926  0.70014107     0.77100
C605        C  0.07057511  0.04135101  0.73324584    -0.20400
C606        C  0.04172759  0.03807360  0.72207613    -0.06900
C607        C  0.03327790  0.05391065  0.69631947     0.13900
C608        C  0.05377736  0.07285661  0.68278698    -0.20400
C609        C  0.08260720  0.07599995  0.69388337    -0.06900
C610        C  0.09122348  0.05991420  0.71937319     0.13900
C611        C  0.12168580  0.06308276  0.73279506    -0.23800
H612        H  0.07703053  0.02921492  0.75293608     0.15200
H613        H  0.04725671  0.08539362  0.66336753     0.15200
C614        C  0.00245308  0.05199764  0.68353516    -0.23700
H615        H  0.12400411  0.05002789  0.75351252     0.05500
H616        H  0.12610666  0.08663788  0.73823674     0.08700
H617        H  0.13859528  0.05500368  0.71703141     0.08700
H618        H  0.98598245  0.05764738  0.70078532     0.08700
H619        H  0.99813587  0.02938624  0.67500149     0.08700
H620        H  0.99933376  0.06753259  0.66472847     0.05400
C621        C  0.93354057  0.96074012  0.73141059    -0.20400
C622        C  0.96264239  0.96305211  0.72103151    -0.06900
C623        C  0.97132940  0.94618539  0.69610907     0.13900
C624        C  0.95083856  0.92680000  0.68287472    -0.20400
C625        C  0.92175909  0.92460523  0.69330861    -0.06900
C626        C  0.91289162  0.94200497  0.71770813     0.13900
C627        C  0.88204840  0.94007329  0.73019090    -0.23800
H628        H  0.92689610  0.97374505  0.75041257     0.15200
H629        H  0.95748278  0.91332166  0.66420753     0.15200
C630        C  0.00230049  0.94764263  0.68394959    -0.23700
H631        H  0.87948721  0.95413359  0.75018328     0.05500
H632        H  0.87699541  0.91688946  0.73655778     0.08700
H633        H  0.86570738  0.94773269  0.71348534     0.08700
H634        H  0.01853858  0.94233404  0.70167586     0.08700
H635        H  0.00682022  0.97006811  0.67505957     0.08700
H636        H  0.00552997  0.93167515  0.66555929     0.05400
C637        C  0.03833152  0.76651723  0.42972609    -0.20400
C638        C  0.03787900  0.77553864  0.45945027    -0.06900
C639        C  0.05496986  0.80031918  0.46829129     0.13900
C640        C  0.07228518  0.81514538  0.44725556    -0.20400
C641        C  0.07265580  0.80629180  0.41748033    -0.06900
C642        C  0.05529301  0.78168375  0.40854520     0.13900
C643        C  0.05539594  0.77050273  0.37707972    -0.23800
H644        H  0.02518512  0.74755655  0.42302036     0.15200
H645        H  0.08580066  0.83378193  0.45414327     0.15200
C646        C  0.05607516  0.81060947  0.50005282    -0.23700
H647        H  0.04164047  0.75026695  0.37446307     0.05500
H648        H  0.07832494  0.76499014  0.37036235     0.08700
H649        H  0.04624515  0.78758933  0.36199752     0.08700
H650        H  0.06280374  0.79204459  0.51467636     0.08700
H651        H  0.03409605  0.81896773  0.50687874     0.08700
H652        H  0.07222153  0.82890843  0.50324966     0.05400
C653        C  0.92737754  0.81176256  0.55014071    -0.20400
C654        C  0.92720093  0.80364663  0.58013424    -0.06900
C655        C  0.94647723  0.78096691  0.59002483     0.13900
C656        C  0.96476885  0.76666062  0.56948067    -0.20400
C657        C  0.96482961  0.77478733  0.53951728    -0.06900
C658        C  0.94614450  0.79790732  0.52977364     0.13900
C659        C  0.94495850  0.80736171  0.49776607    -0.23800
H660        H  0.91262203  0.82906300  0.54255860     0.15200
H661        H  0.97924622  0.74903869  0.57686201     0.15200
C662        C  0.94720552  0.77086202  0.62186101    -0.23700
H663        H  0.92773262  0.82440137  0.49385466     0.05500
H664        H  0.93972720  0.78803363  0.48348637     0.08700
H665        H  0.96649259  0.81707718  0.49113131     0.08700
H666        H  0.92479069  0.76361785  0.62879294     0.08700
H667        H  0.95498675  0.78914655  0.63634888     0.08700
H668        H  0.96252318  0.75197304  0.62516123     0.05400
C669        C  0.97488306  0.06106337  0.29109849    -0.20400
C670        C  0.96352533  0.04416103  0.26752389    -0.06900
C671        C  0.93284673  0.04488841  0.26143134     0.13900
C672        C  0.91437157  0.06240236  0.27909565    -0.20400
C673        C  0.92572711  0.07976055  0.30236501    -0.06900
C674        C  0.95648860  0.07920968  0.30831992     0.13900
C675        C  0.96998471  0.09697140  0.33321427    -0.23800
H676        H  0.99839160  0.06026357  0.29586879     0.15200
H677        H  0.89084710  0.06293531  0.27434666     0.15200
C678        C  0.91926196  0.02656147  0.23698447    -0.23700
H679        H  0.99401044  0.09250125  0.33573739     0.05500
H680        H  0.95902541  0.09125518  0.35442311     0.08700
H681        H  0.96744183  0.12095544  0.32875243     0.08700
H682        H  0.92470646  0.00287010  0.24037159     0.08700
H683        H  0.92775566  0.03398848  0.21519406     0.08700
H684        H  0.89479125  0.02864777  0.23639966     0.05400
C685        C  0.07030944  0.96552625  0.25896399    -0.20400
C686        C  0.04077088  0.96800604  0.26792929    -0.06900
C687        C  0.03076254  0.95093349  0.29223539     0.13900
C688        C  0.05047895  0.93166222  0.30663567    -0.20400
C689        C  0.08014091  0.92937970  0.29790316    -0.06900
C690        C  0.09021149  0.94673143  0.27374280     0.13900
C691        C  0.12155831  0.94488517  0.26259441    -0.23800
H692        H  0.07792256  0.97859335  0.24034971     0.15200
H693        H  0.04267919  0.91829663  0.32495335     0.15200
C694        C  0.99908951  0.95201269  0.30249228    -0.23700
H695        H  0.12495286  0.95872456  0.24256274     0.05500
H696        H  0.12689698  0.92167844  0.25667548     0.08700
H697        H  0.13717785  0.95293785  0.27984425     0.08700
H698        H  0.98398072  0.94683736  0.28372492     0.08700
H699        H  0.99396361  0.97426293  0.31140858     0.08700
H700        H  0.99475153  0.93575506  0.32040594     0.05400
C701        C  0.03001434  0.20288769  0.54937678    -0.20400
C702        C  0.03789797  0.23103490  0.53850831    -0.06900
C703        C  0.06626526  0.24259401  0.54559688     0.13900
C704        C  0.08544765  0.22603086  0.56360470    -0.20400
C705        C  0.07708679  0.19847350  0.57511916    -0.06900
C706        C  0.04917151  0.18654509  0.56764651     0.13900
C707        C  0.03990135  0.15625547  0.57807501    -0.23800
H708        H  0.00855052  0.19365579  0.54380303     0.15200
H709        H  0.10702396  0.23496014  0.56929826     0.15200
C710        C  0.07704698  0.27189159  0.53383025    -0.23700
H711        H  0.01793886  0.14978938  0.56899524     0.05500
H712        H  0.03838392  0.15587020  0.60258638     0.08700
H713        H  0.05630064  0.13959992  0.57070655     0.08700
H714        H  0.06357641  0.29017052  0.54299220     0.08700
H715        H  0.07577130  0.27195435  0.50927579     0.08700
H716        H  0.10040791  0.27630601  0.54019420     0.05400
C717        C  0.92680318  0.23343963  0.46561340    -0.20400
C718        C  0.95706222  0.22683333  0.46564556    -0.06900
C719        C  0.96760952  0.20372117  0.44740361     0.13900
C720        C  0.94763978  0.18817288  0.42927284    -0.20400
C721        C  0.91732712  0.19470119  0.42921257    -0.06900
C722        C  0.90671010  0.21753832  0.44787776     0.13900
C723        C  0.87451611  0.22620905  0.44841529    -0.23800
H724        H  0.91884754  0.25114366  0.47964632     0.15200
H725        H  0.95579136  0.17088742  0.41483867     0.15200
C726        C  0.00002301  0.19610395  0.44592977    -0.23700
H727        H  0.87058324  0.24545091  0.46315817     0.05500
H728        H  0.86092259  0.20756568  0.45681706     0.08700
H729        H  0.86704283  0.23236585  0.42578401     0.08700
H730        H  0.00771315  0.18741997  0.46760385     0.08700
H731        H  0.01305474  0.21607160  0.43997540     0.08700
H732        H  0.00445712  0.17882719  0.42904761     0.05400
C733        C  0.76256891  0.95336052  0.56332491    -0.20400
C734        C  0.77081349  0.95452115  0.53349485    -0.06900
C735        C  0.79493705  0.93730938  0.52358512     0.13900
C736        C  0.81019707  0.91940125  0.54395099    -0.20400
C737        C  0.80234374  0.91884833  0.57397348    -0.06900
C738        C  0.77807313  0.93598066  0.58375384     0.13900
C739        C  0.76756743  0.93535004  0.61544315    -0.23800
H740        H  0.74405385  0.96654041  0.57081243     0.15200
H741        H  0.82850169  0.90593631  0.53647271     0.15200
C742        C  0.80410608  0.93694467  0.49152989    -0.23700
H743        H  0.74710746  0.94852095  0.61849357     0.05500
H744        H  0.78470324  0.94489381  0.63032189     0.08700
H745        H  0.76262649  0.91224138  0.62215665     0.08700
H746        H  0.81247483  0.95904118  0.48490346     0.08700
H747        H  0.78494369  0.93072332  0.47734991     0.08700
H748        H  0.82208091  0.92076780  0.48748390     0.05400
C749        C  0.79253616  0.02225494  0.44227619    -0.20400
C750        C  0.76901869  0.03331754  0.45914616    -0.06900
C751        C  0.76280664  0.06391927  0.45838647     0.13900
C752        C  0.78003406  0.08250859  0.44051973    -0.20400
C753        C  0.80311602  0.07142025  0.42299595    -0.06900
C754        C  0.80947624  0.04078059  0.42396371     0.13900
C755        C  0.83441537  0.02744718  0.40644986    -0.23800
H756        H  0.79746732  0.99882449  0.44318596     0.15200
H757        H  0.77495007  0.10590814  0.43975837     0.15200
C758        C  0.73867412  0.07738174  0.47691310    -0.23700
H759        H  0.83739040  0.00361509  0.41159051     0.05500
H760        H  0.85546031  0.03902660  0.41180812     0.08700
H761        H  0.82971813  0.02920452  0.38237993     0.08700
H762        H  0.74211537  0.07168426  0.50059959     0.08700
H763        H  0.71681261  0.06912449  0.46934961     0.08700
H764        H  0.73833237  0.10186941  0.47504105     0.05400
C765        C  0.20811729  0.03134448  0.55522137    -0.20400
C766        C  0.22457087  0.04413648  0.53231883    -0.06900
C767        C  0.22438991  0.07504247  0.52848310     0.13900
C768        C  0.20909192  0.09264832  0.54873908    -0.20400
C769        C  0.19384383  0.08014046  0.57277387    -0.06900
C770        C  0.19282736  0.04891653  0.57567894     0.13900
C771        C  0.17537603  0.03381390  0.59974192    -0.23800
H772        H  0.20774830  0.00746647  0.55742405     0.15200
H773        H  0.20970719  0.11646721  0.54611927     0.15200
C774        C  0.23970812  0.08949868  0.50270716    -0.23700
H775        H  0.17530501  0.00939868  0.59702948     0.05500
H776        H  0.15205165  0.04142225  0.59907786     0.08700
H777        H  0.18526022  0.03869121  0.62174259     0.08700
H778        H  0.23116575  0.08012691  0.48159543     0.08700
H779        H  0.26378343  0.08569115  0.50432971     0.08700
H780        H  0.23607246  0.11377628  0.50228187     0.05400
C781        C  0.18539647  0.92928275  0.44843625    -0.20400
C782        C  0.19473642  0.92655023  0.41897692    -0.06900
C783        C  0.21986614  0.94264446  0.40937274     0.13900
C784        C  0.23453811  0.96141568  0.42928943    -0.20400
C785        C  0.22476954  0.96484690  0.45848804    -0.06900
C786        C  0.19990635  0.94844032  0.46829921     0.13900
C787        C  0.18910934  0.95016400  0.49980401    -0.23800
H788        H  0.16650831  0.91650461  0.45586575     0.15200
H789        H  0.25365054  0.97385319  0.42184905     0.15200
C790        C  0.23215528  0.93941236  0.37850846    -0.23700
H791        H  0.17087055  0.93421405  0.50399883     0.05500
H792        H  0.18047818  0.97259830  0.50452934     0.08700
H793        H  0.20748595  0.94495360  0.51533151     0.08700
H794        H  0.21606309  0.94788642  0.36196605     0.08700
H795        H  0.23704313  0.91580261  0.37391436     0.08700
H796        H  0.25300340  0.95213491  0.37565087     0.05400
C797        C  0.74625563  0.77381133  0.60558493    -0.20400
C798        C  0.77531061  0.76744851  0.61439568    -0.06900
C799        C  0.78331768  0.73810089  0.62129700     0.13900
C800        C  0.76159098  0.71595989  0.62104832    -0.20400
C801        C  0.73208908  0.72263523  0.61430447    -0.06900
C802        C  0.72439265  0.75163864  0.60561120     0.13900
C803        C  0.69277598  0.75965241  0.59871327    -0.23800
H804        H  0.74021782  0.79651233  0.60084894     0.15200
H805        H  0.76724208  0.69372593  0.62800978     0.15200
C806        C  0.81448069  0.73050723  0.63054214    -0.23700
H807        H  0.69051888  0.78340500  0.59288861     0.05500
H808        H  0.67864546  0.75518238  0.61827376     0.08700
H809        H  0.68468545  0.74631837  0.57967087     0.08700
H810        H  0.82054743  0.74268547  0.65105325     0.08700
H811        H  0.83005444  0.73670278  0.61262415     0.08700
H812        H  0.81701412  0.70649167  0.63500993     0.05400
C813        C  0.28720026  0.23684979  0.62434744    -0.20400
C814        C  0.28136969  0.26518740  0.61332668    -0.06900
C815        C  0.25387173  0.27120648  0.59968699     0.13900
C816        C  0.23169867  0.24935851  0.60000916    -0.20400
C817        C  0.23658810  0.22221731  0.61420615    -0.06900
C818        C  0.26504424  0.21526116  0.62510317     0.13900
C819        C  0.27174142  0.18550329  0.63864696    -0.23800
H820        H  0.30850108  0.23237500  0.63452857     0.15200
H821        H  0.20979733  0.25441966  0.59158651     0.15200
C822        C  0.24711069  0.30132637  0.58717927    -0.23700
H823        H  0.29541924  0.18353726  0.64501145     0.05500
H824        H  0.26659382  0.16775680  0.62241275     0.08700
H825        H  0.25839023  0.18204777  0.65891144     0.08700
H826        H  0.26293045  0.30658354  0.56918696     0.08700
H827        H  0.24904797  0.31830643  0.60485770     0.08700
H828        H  0.22436403  0.30239822  0.57784529     0.05400
C829        C  0.56675386  0.54047626  0.73641508    -0.20400
C830        C  0.53659443  0.54010319  0.72912060    -0.06900
C831        C  0.52621395  0.55859598  0.70601088     0.13900
C832        C  0.54627927  0.57702832  0.69095681    -0.20400
C833        C  0.57659383  0.57694763  0.69783927    -0.06900
C834        C  0.58693120  0.55835564  0.72098818     0.13900
C835        C  0.61899677  0.55789105  0.73041286    -0.23800
H836        H  0.57464948  0.52637872  0.75417691     0.15200
H837        H  0.53828547  0.59143583  0.67350095     0.15200
C838        C  0.49394327  0.55971690  0.69767201    -0.23700
H839        H  0.62262574  0.54346546  0.75000158     0.05500
H840        H  0.62640016  0.58056349  0.73639739     0.08700
H841        H  0.63288607  0.54915492  0.71222632     0.08700
H842        H  0.48051272  0.56518513  0.71744674     0.08700
H843        H  0.48685787  0.53806496  0.68851728     0.08700
H844        H  0.48950856  0.57672865  0.68048509     0.05400
C845        C  0.46364924  0.43239625  0.73739831    -0.20400
C846        C  0.46002830  0.46274316  0.73233713    -0.06900
C847        C  0.43821088  0.47238215  0.71202065     0.13900
C848        C  0.42117550  0.45135045  0.69670987    -0.20400
C849        C  0.42493004  0.42086521  0.70141212    -0.06900
C850        C  0.44647819  0.41128278  0.72224572     0.13900
C851        C  0.45107186  0.37903694  0.72944406    -0.23800
H852        H  0.48032491  0.42516634  0.75312395     0.15200
H853        H  0.40445107  0.45895304  0.68121403     0.15200
C854        C  0.43129860  0.50455930  0.70682513    -0.23700
H855        H  0.46771544  0.37594366  0.74734368     0.05500
H856        H  0.45924148  0.36712579  0.70962683     0.08700
H857        H  0.42996993  0.36901240  0.73703045     0.08700
H858        H  0.43597788  0.51034618  0.68341048     0.08700
H859        H  0.44402806  0.51962681  0.72143617     0.08700
H860        H  0.40750066  0.50854879  0.71126171     0.05400
C861        C  0.25870078  0.43463191  0.55497082    -0.20400
C862        C  0.27221833  0.46071091  0.54474453    -0.06900
C863        C  0.30188704  0.46701922  0.55358927     0.13900
C864        C  0.31684594  0.44709257  0.57215309    -0.20400
C865        C  0.30335982  0.42093705  0.58155413    -0.06900
C866        C  0.27392047  0.41466208  0.57314806     0.13900
C867        C  0.25823326  0.38727309  0.58401636    -0.23800
H868        H  0.23613323  0.42959393  0.54849445     0.15200
H869        H  0.33937007  0.45172538  0.57913260     0.15200
C870        C  0.31807472  0.49473712  0.54434233    -0.23700
H871        H  0.23494786  0.38628259  0.57611743     0.05500
H872        H  0.25804448  0.38703760  0.60861435     0.08700
H873        H  0.26970129  0.36724054  0.57582439     0.08700
H874        H  0.30511072  0.51455106  0.55067047     0.08700
H875        H  0.32194699  0.49453067  0.52009120     0.08700
H876        H  0.34010937  0.49659405  0.55518576     0.05400
C877        C  0.26842969  0.75302604  0.39897833    -0.20400
C878        C  0.26108652  0.72406967  0.39055508    -0.06900
C879        C  0.23158372  0.71710167  0.38281217     0.13900
C880        C  0.21056574  0.73975430  0.38127855    -0.20400
C881        C  0.21845547  0.76916783  0.38712069    -0.06900
C882        C  0.24739514  0.77582714  0.39711444     0.13900
C883        C  0.25673570  0.80722934  0.40333502    -0.23800
H884        H  0.29121316  0.75826295  0.40450511     0.15200
H885        H  0.18832598  0.73480439  0.37362446     0.15200
C886        C  0.22261949  0.68595129  0.37479535    -0.23700
H887        H  0.28029502  0.80859837  0.41030790     0.05500
H888        H  0.24299716  0.81649947  0.42138727     0.08700
H889        H  0.25391209  0.82090397  0.38308928     0.08700
H890        H  0.22762329  0.67092323  0.39359729     0.08700
H891        H  0.23484490  0.67844042  0.35492214     0.08700
H892        H  0.19859006  0.68428925  0.36979866     0.05400
C893        C  0.27816324  0.58689621  0.44929614    -0.20400
C894        C  0.30116095  0.57601231  0.43166129    -0.06900
C895        C  0.30884557  0.54577046  0.43329365     0.13900
C896        C  0.29273474  0.52708940  0.45208624    -0.20400
C897        C  0.26886708  0.53779927  0.46866201    -0.06900
C898        C  0.26175312  0.56815674  0.46763305     0.13900
C899        C  0.23746902  0.58112483  0.48633037    -0.23800
H900        H  0.27237685  0.61011690  0.44803483     0.15200
H901        H  0.29847466  0.50386778  0.45351743     0.15200
C902        C  0.33432834  0.53321883  0.41596385    -0.23700
H903        H  0.23625422  0.60554319  0.48399088     0.05500
H904        H  0.24157691  0.57600865  0.51004776     0.08700
H905        H  0.21573059  0.57192679  0.47943905     0.08700
H906        H  0.35484771  0.54580689  0.42108817     0.08700
H907        H  0.32961343  0.53439659  0.39186622     0.08700
H908        H  0.33831561  0.50963510  0.42153879     0.05400
C909        C  0.53006281  0.70657576  0.55069469    -0.20400
C910        C  0.54165791  0.73090593  0.53515272    -0.06900
C911        C  0.57196397  0.73801661  0.53855231     0.13900
C912        C  0.58967659  0.72078100  0.55753986    -0.20400
C913        C  0.57786065  0.69689972  0.57366052    -0.06900
C914        C  0.54760965  0.68970050  0.57007763     0.13900
C915        C  0.53382403  0.66378898  0.58589808    -0.23800
H916        H  0.50690270  0.70090293  0.54790173     0.15200
H917        H  0.61286785  0.72637006  0.56026865     0.15200
C918        C  0.58599257  0.76308979  0.52163814    -0.23700
H919        H  0.51043937  0.66031382  0.57905267     0.05500
H920        H  0.53402752  0.66765263  0.61015845     0.08700
H921        H  0.54626092  0.64330246  0.58074411     0.08700
H922        H  0.57610633  0.78443653  0.52847336     0.08700
H923        H  0.58255923  0.75977197  0.49749587     0.08700
H924        H  0.61018290  0.76451239  0.52585499     0.05400
C925        C  0.44699249  0.68760726  0.42946052    -0.20400
C926        C  0.41738575  0.69689765  0.42924162    -0.06900
C927        C  0.40932316  0.72200141  0.44613771     0.13900
C928        C  0.43113053  0.73734404  0.46225421    -0.20400
C929        C  0.46068062  0.72800088  0.46255702    -0.06900
C930        C  0.46867631  0.70256198  0.44615975     0.13900
C931        C  0.50014144  0.69164573  0.44518916    -0.23800
H932        H  0.45320174  0.66851384  0.41639430     0.15200
H933        H  0.42501596  0.75673411  0.47492443     0.15200
C934        C  0.37805524  0.73352068  0.44647382    -0.23700
H935        H  0.50262629  0.67269624  0.42975359     0.05500
H936        H  0.50718199  0.68399830  0.46746932     0.08700
H937        H  0.51501590  0.70966509  0.43758621     0.08700
H938        H  0.36310322  0.71687144  0.45656784     0.08700
H939        H  0.37062028  0.73847963  0.42353569     0.08700
H940        H  0.37616570  0.75415274  0.45967329     0.05400
C941        C  0.44857178  0.28779901  0.58974791    -0.20400
C942        C  0.42805223  0.30826651  0.57846716    -0.06900
C943        C  0.42757781  0.31423299  0.54765364     0.13900
C944        C  0.44681765  0.29872801  0.52902108    -0.20400
C945        C  0.46603892  0.27713250  0.54023275    -0.06900
C946        C  0.46744213  0.27203513  0.57102001     0.13900
C947        C  0.48919316  0.25053672  0.58432056    -0.23800
H948        H  0.44922260  0.28332869  0.61332876     0.15200
H949        H  0.44630398  0.30290335  0.50537408     0.15200
C950        C  0.40733269  0.33706816  0.53415592    -0.23700
H951        H  0.48840606  0.25066029  0.60890587     0.05500
H952        H  0.51200749  0.25657447  0.57754533     0.08700
H953        H  0.48406183  0.22772398  0.57683369     0.08700
H954        H  0.41056968  0.35866323  0.54543743     0.08700
H955        H  0.38393325  0.32992025  0.53611375     0.08700
H956        H  0.41182975  0.34033610  0.51020892     0.05400
C957        C  0.74896052  0.27072881  0.39028693    -0.20400
C958        C  0.72081811  0.26389072  0.37856197    -0.06900
C959        C  0.71438492  0.23409611  0.37064432     0.13900
C960        C  0.73680397  0.21287096  0.37258885    -0.20400
C961        C  0.76532891  0.22041071  0.38202114    -0.06900
C962        C  0.77135793  0.24933089  0.39192003     0.13900
C963        C  0.80187719  0.25801965  0.40233278    -0.23800
H964        H  0.75398365  0.29327458  0.39676128     0.15200
H965        H  0.73261653  0.19052514  0.36486487     0.15200
C966        C  0.68483695  0.22447703  0.35816729    -0.23700
H967        H  0.80294882  0.28166227  0.40892516     0.05500
H968        H  0.81812274  0.25442914  0.38431696     0.08700
H969        H  0.80819102  0.24440267  0.42180635     0.08700
H970        H  0.68002666  0.23665146  0.33734389     0.08700
H971        H  0.66715450  0.22852990  0.37463867     0.08700
H972        H  0.68437773  0.20049996  0.35281849     0.05400
C973        C  0.55288799  0.28656157  0.40712340    -0.20400
C974        C  0.57104964  0.30952653  0.41777760    -0.06900
C975        C  0.56968430  0.31753619  0.44797956     0.13900
C976        C  0.55093606  0.30162409  0.46690584    -0.20400
C977        C  0.53385680  0.27777784  0.45645228    -0.06900
C978        C  0.53417094  0.27068876  0.42601733     0.13900
C979        C  0.51429751  0.24708086  0.41315659    -0.23800
H980        H  0.55370572  0.28070386  0.38385085     0.15200
H981        H  0.55035380  0.30718162  0.49025575     0.15200
C982        C  0.58897027  0.34167078  0.46070506    -0.23700
H983        H  0.51617251  0.24586496  0.38866464     0.05500
H984        H  0.49089957  0.25200475  0.41861107     0.08700
H985        H  0.52031855  0.22510414  0.42213006     0.08700
H986        H  0.58340403  0.36314084  0.45019875     0.08700
H987        H  0.61261959  0.33648369  0.45675857     0.08700
H988        H  0.58581133  0.34411564  0.48496485     0.05400
C989        C  0.73458977  0.54003630  0.56561205    -0.20400
C990        C  0.72384357  0.53649529  0.53662653    -0.06900
C991        C  0.69781397  0.55163395  0.52789873     0.13900
C992        C  0.68385030  0.57053889  0.54817937    -0.20400
C993        C  0.69470758  0.57401165  0.57711552    -0.06900
C994        C  0.72032148  0.55838692  0.58601768     0.13900
C995        C  0.73356319  0.56189554  0.61656702    -0.23800
H996        H  0.75439354  0.52834576  0.57236894     0.15200
H997        H  0.66428710  0.58266424  0.54146144     0.15200
C998        C  0.68511519  0.54882888  0.49710389    -0.23700
H999        H  0.75448981  0.54930462  0.61904214     0.05500
H1000       H  0.71794416  0.55348688  0.63349701     0.08700
H1001       H  0.73855280  0.58556771  0.62089625     0.08700
H1002       H  0.67740104  0.52583223  0.49327759     0.08700
H1003       H  0.70213001  0.55481612  0.48047606     0.08700
H1004       H  0.66581281  0.56361440  0.49374676     0.05400
C1005       C  0.70056563  0.46850042  0.44676635    -0.20400
C1006       C  0.72850868  0.46075413  0.45814339    -0.06900
C1007       C  0.74053263  0.43283029  0.45071621     0.13900
C1008       C  0.72434604  0.41369548  0.43232302    -0.20400
C1009       C  0.69652465  0.42147059  0.42074219    -0.06900
C1010       C  0.68451286  0.44940959  0.42803283     0.13900
C1011       C  0.65541318  0.45983292  0.41544752    -0.23800
H1012       H  0.69137666  0.48991616  0.45218969     0.15200
H1013       H  0.73363946  0.39231289  0.42688730     0.15200
C1014       C  0.77001009  0.42241666  0.46249729    -0.23700
H1015       H  0.65028937  0.48282048  0.42236536     0.05500
H1016       H  0.63718161  0.44544081  0.42339119     0.08700
H1017       H  0.65618582  0.45939551  0.39087030     0.08700
H1018       H  0.77015635  0.42334675  0.48707252     0.08700
H1019       H  0.78808884  0.43636439  0.45349494     0.08700
H1020       H  0.77475490  0.39924958  0.45591377     0.05400
C1021       C  0.44366332  0.57363361  0.32009645    -0.20400
C1022       C  0.41429516  0.57518477  0.31013679    -0.06900
C1023       C  0.40547881  0.55849079  0.28504761     0.13900
C1024       C  0.42636897  0.54083233  0.27055902    -0.20400
C1025       C  0.45569312  0.53906772  0.28065904    -0.06900
C1026       C  0.46445136  0.55561877  0.30588609     0.13900
C1027       C  0.49585222  0.55548278  0.31730900    -0.23800
H1028       H  0.45037648  0.58666892  0.33914206     0.15200
H1029       H  0.41973308  0.52820270  0.25121620     0.15200
C1030       C  0.37448205  0.56006577  0.27262293    -0.23700
H1031       H  0.49904462  0.57137376  0.33581912     0.05500
H1032       H  0.51125686  0.56179346  0.29928451     0.08700
H1033       H  0.50163084  0.53324242  0.32583331     0.08700
H1034       H  0.36884123  0.58334743  0.26726336     0.08700
H1035       H  0.35846209  0.55117508  0.28892344     0.08700
H1036       H  0.37206184  0.54684724  0.25201225     0.05400
C1037       C  0.56426222  0.46208738  0.26630188    -0.20400
C1038       C  0.53658369  0.46639129  0.27946874    -0.06900
C1039       C  0.53022713  0.45196098  0.30663775     0.13900
C1040       C  0.55143104  0.43301423  0.31923584    -0.20400
C1041       C  0.57859375  0.42783757  0.30532158    -0.06900
C1042       C  0.58533347  0.44312574  0.27876332     0.13900
C1043       C  0.61485506  0.44017545  0.26354174    -0.23800
H1044       H  0.56943035  0.47355813  0.24587591     0.15200
H1045       H  0.54634720  0.42134360  0.33956719     0.15200
C1046       C  0.50081779  0.45516184  0.32190371    -0.23700
H1047       H  0.61704722  0.45584664  0.24472744     0.05500
H1048       H  0.61743875  0.41758460  0.25436941     0.08700
H1049       H  0.63302219  0.44497571  0.27948086     0.08700
H1050       H  0.48262963  0.44896675  0.30648111     0.08700
H1051       H  0.49785236  0.47825376  0.32955386     0.08700
H1052       H  0.49917494  0.44068190  0.34170523     0.05400
C1053       C  0.75711624  0.10166769  0.22384350    -0.20400
C1054       C  0.72786732  0.10813536  0.23160743    -0.06900
C1055       C  0.72028851  0.11201462  0.26161435     0.13900
C1056       C  0.74272638  0.11182133  0.28308245    -0.20400
C1057       C  0.77237289  0.10838044  0.27491674    -0.06900
C1058       C  0.77966499  0.10215586  0.24526556     0.13900
C1059       C  0.81138612  0.09835270  0.23598956    -0.23800
H1060       H  0.76270358  0.09895962  0.20067294     0.15200
H1061       H  0.73742239  0.11671401  0.30596342     0.15200
C1062       C  0.68880480  0.11782971  0.27072059    -0.23700
H1063       H  0.81323738  0.09389663  0.21187685     0.05500
H1064       H  0.82131707  0.07947646  0.24816794     0.08700
H1065       H  0.82415881  0.11876526  0.24104687     0.08700
H1066       H  0.67451137  0.09916768  0.26345427     0.08700
H1067       H  0.68073948  0.13860385  0.26042823     0.08700
H1068       H  0.68675431  0.12007680  0.29512624     0.05400
C1069       C  0.60973518  0.22379208  0.24616558    -0.20400
C1070       C  0.62513106  0.22959555  0.21995071    -0.06900
C1071       C  0.63552846  0.25842434  0.21411161     0.13900
C1072       C  0.63266519  0.28019772  0.23587323    -0.20400
C1073       C  0.62030446  0.27369378  0.26364546    -0.06900
C1074       C  0.60733271  0.24546211  0.26832506     0.13900
C1075       C  0.59127208  0.23775949  0.29650356    -0.23800
H1076       H  0.60128535  0.20168475  0.25011636     0.15200
H1077       H  0.64204076  0.30189491  0.23178008     0.15200
C1078       C  0.65004545  0.26620843  0.18508898    -0.23700
H1079       H  0.58032120  0.21578659  0.29496169     0.05500
H1080       H  0.57390221  0.25447591  0.30092676     0.08700
H1081       H  0.60698191  0.23677433  0.31541023     0.08700
H1082       H  0.63482362  0.26082313  0.16647203     0.08700
H1083       H  0.67094308  0.25372225  0.18243014     0.08700
H1084       H  0.65554284  0.29012780  0.18375747     0.05400
C1085       C  0.28676733  0.86554892  0.26378774    -0.20400
C1086       C  0.28120523  0.87832513  0.23596114    -0.06900
C1087       C  0.25490488  0.89471178  0.23155692     0.13900
C1088       C  0.23337545  0.89483045  0.25387652    -0.20400
C1089       C  0.23755720  0.87873619  0.28007046    -0.06900
C1090       C  0.26518277  0.86541186  0.28588062     0.13900
C1091       C  0.27185049  0.85069885  0.31517238    -0.23800
H1092       H  0.30729173  0.85378327  0.26762202     0.15200
H1093       H  0.21237952  0.90571460  0.24997229     0.15200
C1094       C  0.24928559  0.91191933  0.20350834    -0.23700
H1095       H  0.29513746  0.84301154  0.31643912     0.05500
H1096       H  0.25743546  0.83110229  0.31844177     0.08700
H1097       H  0.26828172  0.86666739  0.33348912     0.08700
H1098       H  0.24655338  0.89673002  0.18441257     0.08700
H1099       H  0.26803639  0.92727120  0.19938591     0.08700
H1100       H  0.22879010  0.92530788  0.20504928     0.05400
C1101       C  0.38878858  0.71844560  0.25365169    -0.20400
C1102       C  0.37615542  0.72697797  0.28060297    -0.06900
C1103       C  0.36771916  0.75656901  0.28512495     0.13900
C1104       C  0.37027640  0.77663959  0.26182646    -0.20400
C1105       C  0.38029327  0.76773138  0.23377722    -0.06900
C1106       C  0.39074684  0.73847105  0.22990538     0.13900
C1107       C  0.40371016  0.72811015  0.20102816    -0.23800
H1108       H  0.39537233  0.69561859  0.25059253     0.15200
H1109       H  0.36252873  0.79905443  0.26514167     0.15200
C1110       C  0.35534483  0.76690555  0.31434401    -0.23700
H1111       H  0.41264712  0.70532358  0.20285676     0.05500
H1112       H  0.42212003  0.74298981  0.19443567     0.08700
H1113       H  0.38650507  0.72782679  0.18344351     0.08700
H1114       H  0.37148173  0.76228901  0.33235779     0.08700
H1115       H  0.33422151  0.75535602  0.31915155     0.08700
H1116       H  0.35080690  0.79103570  0.31427589     0.05400
C1117       C  0.27562441  0.11330578  0.74954064    -0.20400
C1118       C  0.26768463  0.12260001  0.77819392    -0.06900
C1119       C  0.23777794  0.13038043  0.78375238     0.13900
C1120       C  0.21751820  0.13066917  0.76018571    -0.20400
C1121       C  0.22610694  0.12337841  0.73138801    -0.06900
C1122       C  0.25519673  0.11374910  0.72603083     0.13900
C1123       C  0.26518791  0.10583761  0.69525286    -0.23800
H1124       H  0.29830377  0.10701411  0.74515976     0.15200
H1125       H  0.19503742  0.13805166  0.76393326     0.15200
C1126       C  0.22710842  0.14026435  0.81378885    -0.23700
H1127       H  0.28886707  0.09937415  0.69486740     0.05500
H1128       H  0.26229061  0.12509778  0.68027072     0.08700
H1129       H  0.25190276  0.08694681  0.68676837     0.08700
H1130       H  0.23942746  0.16032357  0.82094543     0.08700
H1131       H  0.23016356  0.12222027  0.83017882     0.08700
H1132       H  0.20322037  0.14594597  0.81353985     0.05400
C1133       C  0.38461780  0.21966764  0.74799822    -0.20400
C1134       C  0.38359582  0.22876007  0.77785852    -0.06900
C1135       C  0.38642384  0.25946078  0.78434601     0.13900
C1136       C  0.38704981  0.27990233  0.76091617    -0.20400
C1137       C  0.38491575  0.27058525  0.73146322    -0.06900
C1138       C  0.38479081  0.24021943  0.72479959     0.13900
C1139       C  0.38330532  0.22956762  0.69318399    -0.23800
H1140       H  0.38334085  0.19636774  0.74254018     0.15200
H1141       H  0.38721082  0.30341858  0.76562832     0.15200
C1142       C  0.38755913  0.27133875  0.81555280    -0.23700
H1143       H  0.38344130  0.20504467  0.69179880     0.05500
H1144       H  0.40268611  0.23810856  0.68078433     0.08700
H1145       H  0.36269262  0.23760145  0.68244856     0.08700
H1146       H  0.40601735  0.26083019  0.82793538     0.08700
H1147       H  0.36624506  0.26712945  0.82691900     0.08700
H1148       H  0.39136427  0.29561728  0.81596936     0.05400
C1149       C  0.43007535  0.04076604  0.76662211    -0.20400
C1150       C  0.45966682  0.03823741  0.77548901    -0.06900
C1151       C  0.46949742  0.05349281  0.80121366     0.13900
C1152       C  0.44953765  0.07139279  0.81684464    -0.20400
C1153       C  0.42012396  0.07448724  0.80744466    -0.06900
C1154       C  0.41011721  0.05842571  0.78228972     0.13900
C1155       C  0.37823508  0.05898195  0.77216387    -0.23800
H1156       H  0.42240706  0.02854111  0.74739164     0.15200
H1157       H  0.45716491  0.08375031  0.83600072     0.15200
C1158       C  0.50117945  0.05209840  0.81170917    -0.23700
H1159       H  0.37398358  0.04285388  0.75406920     0.05500
H1160       H  0.37239255  0.08114311  0.76345019     0.08700
H1161       H  0.36350616  0.05316704  0.79091096     0.08700
H1162       H  0.51622067  0.05877105  0.79350950     0.08700
H1163       H  0.50661318  0.02938221  0.81917473     0.08700
H1164       H  0.50529665  0.06714229  0.83074451     0.05400
C1165       C  0.72257293  0.89646962  0.74198741    -0.20400
C1166       C  0.72963517  0.88713432  0.77079805    -0.06900
C1167       C  0.75925207  0.88056452  0.77826282     0.13900
C1168       C  0.78066473  0.88052453  0.75603888    -0.20400
C1169       C  0.77306018  0.88676777  0.72664293    -0.06900
C1170       C  0.74414901  0.89626219  0.71962543     0.13900
C1171       C  0.73572566  0.90419363  0.68832413    -0.23800
H1172       H  0.69978738  0.90153202  0.73645377     0.15200
H1173       H  0.80302420  0.87353018  0.76122025     0.15200
C1174       C  0.76804523  0.87231725  0.80946091    -0.23700
H1175       H  0.71213776  0.91080119  0.68659176     0.05500
H1176       H  0.73928916  0.88495526  0.67349576     0.08700
H1177       H  0.74955482  0.92301063  0.68069589     0.08700
H1178       H  0.75691820  0.85150930  0.81624189     0.08700
H1179       H  0.76170664  0.89033169  0.82486974     0.08700
H1180       H  0.79227959  0.86885372  0.81153958     0.05400
C1181       C  0.63523576  0.78322077  0.73536754    -0.20400
C1182       C  0.61911767  0.77830621  0.76132931    -0.06900
C1183       C  0.60016942  0.75350106  0.76329348     0.13900
C1184       C  0.60057250  0.73231822  0.74046756    -0.20400
C1185       C  0.61957891  0.73568211  0.71618651    -0.06900
C1186       C  0.63570707  0.76228979  0.71270274     0.13900
C1187       C  0.65398873  0.76856884  0.68545924    -0.23800
H1188       H  0.64893976  0.80286769  0.73357161     0.15200
H1189       H  0.58787332  0.71208226  0.74273324     0.15200
C1190       C  0.58121303  0.74832419  0.79012711    -0.23700
H1191       H  0.66301217  0.79144585  0.68563626     0.05500
H1192       H  0.64002352  0.76608762  0.66531619     0.08700
H1193       H  0.67312956  0.75337342  0.68414615     0.08700
H1194       H  0.56536337  0.76684761  0.79264099     0.08700
H1195       H  0.59533286  0.74683758  0.81025413     0.08700
H1196       H  0.56826463  0.72749240  0.78821289     0.05400
C1197       C  0.57784424  0.95158147  0.80320118    -0.20400
C1198       C  0.57181595  0.92102962  0.80271176    -0.06900
C1199       C  0.54636633  0.91078371  0.78708691     0.13900
C1200       C  0.52863397  0.93119104  0.77177233    -0.20400
C1201       C  0.53525456  0.96141511  0.77194632    -0.06900
C1202       C  0.55996536  0.97185266  0.78805631     0.13900
C1203       C  0.56873245  0.00404839  0.78901177    -0.23800
H1204       H  0.59705437  0.95983519  0.81509298     0.15200
H1205       H  0.50930127  0.92356459  0.75964432     0.15200
C1206       C  0.53779756  0.87854276  0.78567410    -0.23700
H1207       H  0.59160749  0.00659844  0.78050745     0.05500
H1208       H  0.56805852  0.01207028  0.81224061     0.08700
H1209       H  0.55420857  0.01837084  0.77541107     0.08700
H1210       H  0.53305836  0.87017238  0.80827932     0.08700
H1211       H  0.55588061  0.86551616  0.77550444     0.08700
H1212       H  0.51756622  0.87492131  0.77207719     0.05400
C1213       C  0.69003107  0.07077275  0.04537934    -0.20400
C1214       C  0.70070287  0.07229252  0.07455623    -0.06900
C1215       C  0.72649347  0.05642293  0.08243786     0.13900
C1216       C  0.74074608  0.03928169  0.06097656    -0.20400
C1217       C  0.72993758  0.03743398  0.03186373    -0.06900
C1218       C  0.70414303  0.05335709  0.02394357     0.13900
C1219       C  0.69197308  0.05310715  0.99279516    -0.23800
H1220       H  0.67055569  0.08337792  0.03933529     0.15200
H1221       H  0.76048602  0.02712269  0.06702889     0.15200
C1222       C  0.73994192  0.05846245  0.11301900    -0.23700
H1223       H  0.67295793  0.06841355  0.99025921     0.05500
H1224       H  0.68400706  0.03061490  0.98696487     0.08700
H1225       H  0.70939765  0.06013373  0.97701251     0.08700
H1226       H  0.72449011  0.04912274  0.12961261     0.08700
H1227       H  0.74482817  0.08192010  0.11849845     0.08700
H1228       H  0.76096707  0.04590768  0.11468322     0.05400
C1229       C  0.70373144  0.95151454  0.96222889    -0.20400
C1230       C  0.73058156  0.96356570  0.95205246    -0.06900
C1231       C  0.74042089  0.95637195  0.92318389     0.13900
C1232       C  0.72310920  0.93754698  0.90545685    -0.20400
C1233       C  0.69674194  0.92509533  0.91599500    -0.06900
C1234       C  0.68689171  0.93208717  0.94470434     0.13900
C1235       C  0.65835475  0.91968249  0.95662302    -0.23800
H1236       H  0.69606182  0.95693509  0.98427692     0.15200
H1237       H  0.73057232  0.93187652  0.88338155     0.15200
C1238       C  0.76868968  0.96872442  0.91051544    -0.23700
H1239       H  0.65337850  0.92844446  0.97903090     0.05500
H1240       H  0.65979635  0.89525297  0.95831716     0.08700
H1241       H  0.63977315  0.92570022  0.94164883     0.08700
H1242       H  0.78800162  0.96019103  0.92308720     0.08700
H1243       H  0.76835569  0.99325413  0.91146413     0.08700
H1244       H  0.77170682  0.96216081  0.88701501     0.05400
C1245       C  0.30239345  0.94591596  0.03290851    -0.20400
C1246       C  0.27258889  0.95278740  0.03867257    -0.06900
C1247       C  0.25941971  0.94146487  0.06479742     0.13900
C1248       C  0.27622432  0.92370848  0.08386120    -0.20400
C1249       C  0.30590747  0.91649717  0.07799570    -0.06900
C1250       C  0.31919115  0.92798304  0.05206772     0.13900
C1251       C  0.35075380  0.92122514  0.04394487    -0.23800
H1252       H  0.31268881  0.95443361  0.01302231     0.15200
H1253       H  0.26581808  0.91537393  0.10376975     0.15200
C1254       C  0.22795741  0.94823630  0.07358192    -0.23700
H1255       H  0.35705041  0.93146573  0.02251101     0.05500
H1256       H  0.35374195  0.89696046  0.04178961     0.08700
H1257       H  0.36598011  0.93010831  0.06114777     0.08700
H1258       H  0.21227837  0.93832093  0.05740250     0.08700
H1259       H  0.22470693  0.97252782  0.07486103     0.08700
H1260       H  0.22233730  0.93890499  0.09561583     0.05400
C1261       C  0.28006627  0.05994314  0.91658281    -0.20400
C1262       C  0.30866539  0.06895961  0.92505291    -0.06900
C1263       C  0.32129388  0.05677141  0.95100909     0.13900
C1264       C  0.30434800  0.03716060  0.96838610    -0.20400
C1265       C  0.27504861  0.02944498  0.96060417    -0.06900
C1266       C  0.26307804  0.04069593  0.93380055     0.13900
C1267       C  0.23260574  0.03257869  0.92249763    -0.23800
H1268       H  0.27052535  0.06847672  0.89624746     0.15200
H1269       H  0.31388697  0.02836671  0.98859439     0.15200
C1270       C  0.35207351  0.06489516  0.96103236    -0.23700
H1271       H  0.22825448  0.04168613  0.90005223     0.05500
H1272       H  0.21542346  0.04182515  0.93729123     0.08700
H1273       H  0.23035843  0.00816703  0.92100500     0.08700
H1274       H  0.35368147  0.08915977  0.96445570     0.08700
H1275       H  0.36835310  0.05788572  0.94411746     0.08700
H1276       H  0.35804493  0.05388307  0.98221376     0.05400
C1277       C  0.56803930  0.03919820  0.23334720    -0.20400
C1278       C  0.53842038  0.03946258  0.22402574    -0.06900
C1279       C  0.53012371  0.05707659  0.19944755     0.13900
C1280       C  0.55167040  0.07416947  0.18505842    -0.20400
C1281       C  0.58136399  0.07360641  0.19414207    -0.06900
C1282       C  0.58968056  0.05587277  0.21863681     0.13900
C1283       C  0.62102318  0.05535416  0.23022018    -0.23800
H1284       H  0.57431768  0.02565552  0.25215431     0.15200
H1285       H  0.54532252  0.08808245  0.16654899     0.15200
C1286       C  0.49850866  0.05880016  0.18886142    -0.23700
H1287       H  0.62312740  0.04152271  0.25044676     0.05500
H1288       H  0.62825901  0.07814022  0.23594528     0.08700
H1289       H  0.63599761  0.04598354  0.21325663     0.08700
H1290       H  0.48394297  0.06542176  0.20743610     0.08700
H1291       H  0.49133290  0.03704915  0.18001156     0.08700
H1292       H  0.49577440  0.07526250  0.17080506     0.05400
C1293       C  0.46588729  0.93350942  0.22814774    -0.20400
C1294       C  0.46111746  0.96362253  0.22286795    -0.06900
C1295       C  0.44037659  0.97234178  0.20096524     0.13900
C1296       C  0.42471345  0.95054515  0.18512290    -0.20400
C1297       C  0.42881954  0.92042219  0.19117044    -0.06900
C1298       C  0.45004756  0.91178513  0.21260291     0.13900
C1299       C  0.45648981  0.87964767  0.21883145    -0.23800
H1300       H  0.48222097  0.92696064  0.24452772     0.15200
H1301       H  0.40803068  0.95716517  0.16912934     0.15200
C1302       C  0.43303000  0.00424952  0.19483182    -0.23700
H1303       H  0.47522078  0.87703417  0.23461338     0.05500
H1304       H  0.46244329  0.86824157  0.19792066     0.08700
H1305       H  0.43695644  0.86868129  0.22879768     0.08700
H1306       H  0.43858318  0.00967872  0.17152718     0.08700
H1307       H  0.44494473  0.01984302  0.20959231     0.08700
H1308       H  0.40898729  0.00783194  0.19819901     0.05400
C1309       C  0.56975399  0.76570910  0.95873028    -0.20400
C1310       C  0.53937939  0.77149268  0.95713170    -0.06900
C1311       C  0.52862310  0.79208001  0.93615329     0.13900
C1312       C  0.54875437  0.80705881  0.91794505    -0.20400
C1313       C  0.57928424  0.80170314  0.91984404    -0.06900
C1314       C  0.58990197  0.78050778  0.94040741     0.13900
C1315       C  0.62220185  0.77244168  0.94249436    -0.23800
H1316       H  0.57777508  0.74961030  0.97463239     0.15200
H1317       H  0.54045272  0.82279822  0.90182456     0.15200
C1318       C  0.49612736  0.79784760  0.93136143    -0.23700
H1319       H  0.62607824  0.75413930  0.95844099     0.05500
H1320       H  0.63534026  0.79173221  0.95023243     0.08700
H1321       H  0.63025723  0.76510756  0.92049788     0.08700
H1322       H  0.49113090  0.82124378  0.93679735     0.08700
H1323       H  0.48171267  0.78333731  0.94480641     0.08700
H1324       H  0.49037468  0.79375987  0.90777030     0.05400
C1325       C  0.45895432  0.75852100  0.06450268    -0.20400
C1326       C  0.46648990  0.77310789  0.03814785    -0.06900
C1327       C  0.45574218  0.80224642  0.03341775     0.13900
C1328       C  0.43703427  0.81520443  0.05458295    -0.20400
C1329       C  0.42855897  0.80000819  0.08032003    -0.06900
C1330       C  0.44032391  0.77135586  0.08556874     0.13900
C1331       C  0.43397613  0.75394123  0.11341209    -0.23800
H1332       H  0.46763691  0.73660094  0.06872487     0.15200
H1333       H  0.42826933  0.83712604  0.05054488     0.15200
C1334       C  0.46276299  0.81967057  0.00585472    -0.23700
H1335       H  0.44724277  0.73333763  0.11465801     0.05500
H1336       H  0.41037820  0.74717004  0.11397575     0.08700
H1337       H  0.43954141  0.76742361  0.13323570     0.08700
H1338       H  0.45538729  0.80716480  0.98600420     0.08700
H1339       H  0.48686019  0.82422855  0.00470655     0.08700
H1340       H  0.45133467  0.84137753  0.00551415     0.05400
C1341       C  0.55500378  0.18888780  0.07796854    -0.20400
C1342       C  0.58528830  0.19557051  0.07676512    -0.06900
C1343       C  0.59516866  0.21862359  0.05788024     0.13900
C1344       C  0.57447616  0.23393495  0.04044180    -0.20400
C1345       C  0.54437371  0.22657445  0.04110379    -0.06900
C1346       C  0.53444396  0.20391690  0.06026129     0.13900
C1347       C  0.50210285  0.19608897  0.06291177    -0.23800
H1348       H  0.54737609  0.17161337  0.09275499     0.15200
H1349       H  0.58186951  0.25147006  0.02584049     0.15200
C1350       C  0.62720713  0.22797329  0.05662877    -0.23700
H1351       H  0.49819863  0.17942348  0.08054829     0.05500
H1352       H  0.49380745  0.18654000  0.04181651     0.08700
H1353       H  0.48918723  0.21616340  0.06849358     0.08700
H1354       H  0.64089542  0.20974021  0.04769079     0.08700
H1355       H  0.63513265  0.23406820  0.07913683     0.08700
H1356       H  0.63047013  0.24744549  0.04199601     0.05400
C1357       C  0.43485843  0.23236970  0.96661462    -0.20400
C1358       C  0.46429864  0.22292093  0.96798480    -0.06900
C1359       C  0.47255745  0.19685752  0.95262232     0.13900
C1360       C  0.45138870  0.18179955  0.93530143    -0.20400
C1361       C  0.42222975  0.19202753  0.93295308    -0.06900
C1362       C  0.41365869  0.21717992  0.94963445     0.13900
C1363       C  0.38205601  0.22784250  0.95035627    -0.23800
H1364       H  0.42834822  0.25177583  0.97906057     0.15200
H1365       H  0.45793666  0.16258269  0.92259571     0.15200
C1366       C  0.50386435  0.18545971  0.95318970    -0.23700
H1367       H  0.37902126  0.24584888  0.96679332     0.05500
H1368       H  0.36715842  0.20932708  0.95662154     0.08700
H1369       H  0.37538980  0.23679274  0.92847232     0.08700
H1370       H  0.50984158  0.17812166  0.97587943     0.08700
H1371       H  0.51932754  0.20309482  0.94586221     0.08700
H1372       H  0.50669865  0.16617252  0.93824641     0.05400
C1373       C  0.12908755  0.76443615  0.21239708    -0.20400
C1374       C  0.11334476  0.73831425  0.21818109    -0.06900
C1375       C  0.09509797  0.73667725  0.24345551     0.13900
C1376       C  0.09607140  0.75984100  0.26426995    -0.20400
C1377       C  0.11499682  0.78414186  0.26015452    -0.06900
C1378       C  0.13016608  0.78740673  0.23307247     0.13900
C1379       C  0.14819320  0.81470325  0.22622908    -0.23800
H1380       H  0.14228804  0.76600464  0.19245344     0.15200
H1381       H  0.08406129  0.75775950  0.28489561     0.15200
C1382       C  0.07648115  0.70974619  0.24963408    -0.23700
H1383       H  0.15715918  0.81411880  0.20336906     0.05500
H1384       H  0.16726149  0.81667250  0.24163932     0.08700
H1385       H  0.13405131  0.83463005  0.22821428     0.08700
H1386       H  0.09078144  0.68990037  0.25139270     0.08700
H1387       H  0.06020539  0.70654672  0.23141847     0.08700
H1388       H  0.06403461  0.71198330  0.27066537     0.05400
C1389       C  0.22212757  0.75237586  0.11241516    -0.20400
C1390       C  0.22960853  0.72307949  0.11880450    -0.06900
C1391       C  0.25937569  0.71528965  0.12331288     0.13900
C1392       C  0.28092771  0.73752101  0.12377188    -0.20400
C1393       C  0.27323582  0.76752831  0.12080997    -0.06900
C1394       C  0.24352827  0.77490172  0.11351448     0.13900
C1395       C  0.23376069  0.80623892  0.10764126    -0.23800
H1396       H  0.19907015  0.75795614  0.10884804     0.15200
H1397       H  0.30361020  0.73143728  0.12858347     0.15200
C1398       C  0.26820699  0.68361108  0.12873271    -0.23700
H1399       H  0.21043503  0.80715302  0.09985350     0.05500
H1400       H  0.24779664  0.81627826  0.09018438     0.08700
H1401       H  0.23511519  0.81956177  0.12823447     0.08700
H1402       H  0.26098731  0.66972109  0.10973345     0.08700
H1403       H  0.25773101  0.67524010  0.14928639     0.08700
H1404       H  0.29253862  0.68127632  0.13125744     0.05400
C1405       C  0.24352963  0.60304751  0.23280849    -0.20400
C1406       C  0.21672905  0.61780068  0.23793783    -0.06900
C1407       C  0.21037539  0.62841333  0.26664809     0.13900
C1408       C  0.23226124  0.62706886  0.28859389    -0.20400
C1409       C  0.26021517  0.61533065  0.28255957    -0.06900
C1410       C  0.26555949  0.60183815  0.25492312     0.13900
C1411       C  0.29509659  0.58816753  0.24814866    -0.23800
H1412       H  0.24814644  0.59459228  0.21085183     0.15200
H1413       H  0.22821052  0.63697145  0.31007294     0.15200
C1414       C  0.18077053  0.64175174  0.27409205    -0.23700
H1415       H  0.29571606  0.57895013  0.22535820     0.05500
H1416       H  0.29957927  0.56991413  0.26397483     0.08700
H1417       H  0.31285144  0.60507737  0.25016001     0.08700
H1418       H  0.16287877  0.62571346  0.26875044     0.08700
H1419       H  0.17719292  0.66244310  0.26141898     0.08700
H1420       H  0.17917571  0.64732642  0.29799522     0.05400
C1421       C  0.87011428  0.28129599  0.26288385    -0.20400
C1422       C  0.88299552  0.27488553  0.23545109    -0.06900
C1423       C  0.89729620  0.24747591  0.23122945     0.13900
C1424       C  0.89619932  0.22612835  0.25388405    -0.20400
C1425       C  0.88082281  0.23172039  0.28020188    -0.06900
C1426       C  0.86884656  0.26003404  0.28534254     0.13900
C1427       C  0.85399254  0.26758149  0.31422600    -0.23800
H1428       H  0.85944790  0.30249868  0.26609270     0.15200
H1429       H  0.90537355  0.20432912  0.25016985     0.15200
C1430       C  0.91163108  0.23991170  0.20217099    -0.23700
H1431       H  0.84672695  0.29101770  0.31480539     0.05500
H1432       H  0.86971530  0.26405315  0.33285051     0.08700
H1433       H  0.83415789  0.25347961  0.31752946     0.08700
H1434       H  0.92977414  0.25583132  0.19756986     0.08700
H1435       H  0.89500682  0.24095440  0.18401679     0.08700
H1436       H  0.92118350  0.21731152  0.20244073     0.05400
C1437       C  0.76044758  0.26238602  0.09828849    -0.20400
C1438       C  0.78602679  0.25905945  0.11566404    -0.06900
C1439       C  0.79156225  0.23181571  0.12995809     0.13900
C1440       C  0.76962979  0.21000427  0.12976917    -0.20400
C1441       C  0.74246377  0.21470683  0.11553919    -0.06900
C1442       C  0.73840244  0.24034530  0.09806601     0.13900
C1443       C  0.71007332  0.24554378  0.08118937    -0.23800
H1444       H  0.75656778  0.28318813  0.08701431     0.15200
H1445       H  0.77294916  0.18987563  0.14240153     0.15200
C1446       C  0.82024117  0.22595445  0.14618470    -0.23700
H1447       H  0.71042835  0.26701142  0.06924323     0.05500
H1448       H  0.69107595  0.24572498  0.09668476     0.08700
H1449       H  0.70680518  0.22773124  0.06456190     0.08700
H1450       H  0.82258273  0.24072192  0.16565920     0.08700
H1451       H  0.83914278  0.22956203  0.13097797     0.08700
H1452       H  0.82140747  0.20283656  0.15441427     0.05400
C1453       C  0.77974251  0.38577770  0.25209128    -0.20400
C1454       C  0.77096650  0.38025400  0.22286254    -0.06900
C1455       C  0.74082408  0.37670182  0.21592572     0.13900
C1456       C  0.72011448  0.37678693  0.23882180    -0.20400
C1457       C  0.72897292  0.37915661  0.26869799    -0.06900
C1458       C  0.75920193  0.38499378  0.27529558     0.13900
C1459       C  0.77042047  0.38953537  0.30648620    -0.23800
H1460       H  0.80310425  0.38839359  0.25703216     0.15200
H1461       H  0.69707571  0.37290949  0.23330884     0.15200
C1462       C  0.73066304  0.37171327  0.18445579    -0.23700
H1463       H  0.79414175  0.39601351  0.30687993     0.05500
H1464       H  0.76845293  0.36872459  0.31934810     0.08700
H1465       H  0.75771070  0.40743277  0.31738449     0.08700
H1466       H  0.74027954  0.35094899  0.17567674     0.08700
H1467       H  0.73785136  0.39054626  0.17041852     0.08700
H1468       H  0.70620267  0.36986828  0.18283823     0.05400
C1469       C  0.88823868  0.75101502  0.77560970    -0.20400
C1470       C  0.87848590  0.72271848  0.76733163    -0.06900
C1471       C  0.87120490  0.71672745  0.73751890     0.13900
C1472       C  0.87159386  0.73987821  0.71699320    -0.20400
C1473       C  0.87898547  0.76869621  0.72574484    -0.06900
C1474       C  0.88825863  0.77430941  0.75506789     0.13900
C1475       C  0.89604072  0.80513315  0.76509781    -0.23800
H1476       H  0.89358848  0.75539895  0.79863272     0.15200
H1477       H  0.86456907  0.73583341  0.69434559     0.15200
C1478       C  0.86237631  0.68610827  0.72752975    -0.23700
H1479       H  0.90234531  0.80569517  0.78889978     0.05500
H1480       H  0.87676013  0.81996758  0.76187100     0.08700
H1481       H  0.91498472  0.81359953  0.75200610     0.08700
H1482       H  0.84177677  0.67899868  0.73876958     0.08700
H1483       H  0.88036522  0.67029496  0.73289604     0.08700
H1484       H  0.85829528  0.68523348  0.70326309     0.05400
C1485       C  0.74789917  0.72645500  0.89369513    -0.20400
C1486       C  0.77591479  0.73275901  0.88196719    -0.06900
C1487       C  0.78229971  0.76151946  0.87158293     0.13900
C1488       C  0.75980648  0.78267956  0.87093635    -0.20400
C1489       C  0.73111687  0.77568007  0.88021818    -0.06900
C1490       C  0.72522177  0.74769412  0.89274516     0.13900
C1491       C  0.69463655  0.73964510  0.90310136    -0.23800
H1492       H  0.74309738  0.70424785  0.90137527     0.15200
H1493       H  0.76415447  0.80430249  0.86148125     0.15200
C1494       C  0.81257824  0.76960321  0.86015925    -0.23700
H1495       H  0.69368808  0.71667251  0.91175761     0.05500
H1496       H  0.67867718  0.74145477  0.88442300     0.08700
H1497       H  0.68789249  0.75487584  0.92111098     0.08700
H1498       H  0.81796929  0.75627892  0.84028093     0.08700
H1499       H  0.82939820  0.76545349  0.87765488     0.08700
H1500       H  0.81392903  0.79330158  0.85381463     0.05400
C1501       C  0.73584935  0.62470631  0.78518572    -0.20400
C1502       C  0.76371231  0.61267050  0.77920386    -0.06900
C1503       C  0.76890074  0.59911631  0.75153198     0.13900
C1504       C  0.74675296  0.60021247  0.72953116    -0.20400
C1505       C  0.72010645  0.61519082  0.73463975    -0.06900
C1506       C  0.71402606  0.62633004  0.76319416     0.13900
C1507       C  0.68489633  0.64085591  0.77028646    -0.23800
H1508       H  0.73196340  0.63492090  0.80654840     0.15200
H1509       H  0.75122325  0.59162133  0.70759266     0.15200
C1510       C  0.79850943  0.58578485  0.74441319    -0.23700
H1511       H  0.68345519  0.64701847  0.79405227     0.05500
H1512       H  0.66645447  0.62536273  0.76522657     0.08700
H1513       H  0.68210111  0.66137212  0.75712286     0.08700
H1514       H  0.80333711  0.56752286  0.76012031     0.08700
H1515       H  0.81609722  0.60289248  0.74626774     0.08700
H1516       H  0.79900552  0.57665370  0.72158319     0.05400
C1517       C  0.07387412  0.68871897  0.04756060    -0.20400
C1518       C  0.07353169  0.69681120  0.07754790    -0.06900
C1519       C  0.05583248  0.72097482  0.08657324     0.13900
C1520       C  0.03894889  0.73627168  0.06537930    -0.20400
C1521       C  0.03889834  0.72783825  0.03549871    -0.06900
C1522       C  0.05657693  0.70367999  0.02645966     0.13900
C1523       C  0.05823570  0.69420543  0.99448684    -0.23800
H1524       H  0.08781404  0.67055250  0.04061277     0.15200
H1525       H  0.02544366  0.75480212  0.07222680     0.15200
C1526       C  0.05549242  0.73156143  0.11824939    -0.23700
H1527       H  0.07469493  0.67632578  0.99121583     0.05500
H1528       H  0.06485960  0.71326714  0.98047851     0.08700
H1529       H  0.03647426  0.68558411  0.98695591     0.08700
H1530       H  0.07831079  0.73717761  0.12557508     0.08700
H1531       H  0.04623358  0.71410931  0.13281379     0.08700
H1532       H  0.04162154  0.75160671  0.12094692     0.05400
C1533       C  0.94242149  0.71739357  0.90829515    -0.20400
C1534       C  0.92414247  0.69557953  0.92087197    -0.06900
C1535       C  0.92674986  0.68931799  0.95146652     0.13900
C1536       C  0.94721555  0.70534781  0.96863924    -0.20400
C1537       C  0.96454844  0.72794408  0.95622837    -0.06900
C1538       C  0.96236345  0.73385320  0.92559987     0.13900
C1539       C  0.98142443  0.75694083  0.91089669    -0.23800
H1540       H  0.94054395  0.72216264  0.88483001     0.15200
H1541       H  0.94922964  0.70068243  0.99211566     0.15200
C1542       C  0.90859220  0.66546769  0.96607392    -0.23700
H1543       H  0.97795083  0.75740257  0.88652924     0.05500
H1544       H  0.00513075  0.75213205  0.91519122     0.08700
H1545       H  0.97596059  0.77920396  0.91956106     0.08700
H1546       H  0.91198811  0.64409186  0.95449598     0.08700
H1547       H  0.88480753  0.67139826  0.96545866     0.08700
H1548       H  0.91490835  0.66243593  0.98968272     0.05400
C1549       C  0.11899260  0.28375154  0.73838266    -0.20400
C1550       C  0.11586347  0.27462933  0.76806302    -0.06900
C1551       C  0.10856661  0.24455315  0.77384117     0.13900
C1552       C  0.10778311  0.22427830  0.75024086    -0.20400
C1553       C  0.11448275  0.23314288  0.72134870    -0.06900
C1554       C  0.11881190  0.26331875  0.71507951     0.13900
C1555       C  0.12429457  0.27379358  0.68386636    -0.23800
H1556       H  0.12366869  0.30671979  0.73337477     0.15200
H1557       H  0.10436470  0.20095953  0.75471965     0.15200
C1558       C  0.10255469  0.23313330  0.80462009    -0.23700
H1559       H  0.12661124  0.29822596  0.68272567     0.05500
H1560       H  0.10543825  0.26717082  0.66945725     0.08700
H1561       H  0.14494349  0.26392108  0.67515409     0.08700
H1562       H  0.08483752  0.24643350  0.81508157     0.08700
H1563       H  0.12299826  0.23405417  0.81827809     0.08700
H1564       H  0.09507392  0.20971193  0.80431810     0.05400
C1565       C  0.22019152  0.24433796  0.88690636    -0.20400
C1566       C  0.22914803  0.27340517  0.88030239    -0.06900
C1567       C  0.25986824  0.27986367  0.87896172     0.13900
C1568       C  0.28020896  0.25677717  0.88158701    -0.20400
C1569       C  0.27114429  0.22719983  0.88477460    -0.06900
C1570       C  0.24064125  0.22111864  0.88907946     0.13900
C1571       C  0.22903608  0.19043670  0.89533313    -0.23800
H1572       H  0.19682706  0.23940777  0.88909065     0.15200
H1573       H  0.30351323  0.26189179  0.87928261     0.15200
C1574       C  0.27192682  0.31055259  0.87335151    -0.23700
H1575       H  0.20495311  0.19052003  0.90010722     0.05500
H1576       H  0.24050303  0.18109242  0.91500087     0.08700
H1577       H  0.23232033  0.17592003  0.87583256     0.08700
H1578       H  0.26452500  0.32583916  0.89105673     0.08700
H1579       H  0.26449133  0.31861643  0.85132263     0.08700
H1580       H  0.29649362  0.31105745  0.87332403     0.05400
C1581       C  0.27829831  0.38824173  0.75275816    -0.20400
C1582       C  0.27019315  0.37949361  0.72416761    -0.06900
C1583       C  0.24030244  0.37422534  0.71715150     0.13900
C1584       C  0.21926114  0.37558144  0.73968528    -0.20400
C1585       C  0.22759032  0.38117731  0.76927030    -0.06900
C1586       C  0.25745054  0.38891973  0.77563681     0.13900
C1587       C  0.26800626  0.39709014  0.80632036    -0.23800
H1588       H  0.30144169  0.39244124  0.75765281     0.15200
H1589       H  0.19646951  0.37028029  0.73431579     0.15200
C1590       C  0.23074627  0.36644385  0.68604798    -0.23700
H1591       H  0.29136313  0.40479342  0.80626820     0.05500
H1592       H  0.26695785  0.37758852  0.82119344     0.08700
H1593       H  0.25426304  0.41530384  0.81525795     0.08700
H1594       H  0.24116518  0.34540941  0.67901545     0.08700
H1595       H  0.23746930  0.38436393  0.67064683     0.08700
H1596       H  0.20638044  0.36364757  0.68430708     0.05400
C1597       C  0.95684974  0.56795680  0.76345880    -0.20400
C1598       C  0.95964323  0.53869626  0.77327977    -0.06900
C1599       C  0.94258973  0.52882421  0.79756963     0.13900
C1600       C  0.92342830  0.54869348  0.81160588    -0.20400
C1601       C  0.92121181  0.57817147  0.80223160    -0.06900
C1602       C  0.93796777  0.58789159  0.77763344     0.13900
C1603       C  0.93526613  0.61882902  0.76538059    -0.23800
H1604       H  0.96969748  0.57532039  0.74461076     0.15200
H1605       H  0.91019357  0.54123178  0.83013767     0.15200
C1606       C  0.94357156  0.49720952  0.80811170    -0.23700
H1607       H  0.94853304  0.62180476  0.74494157     0.05500
H1608       H  0.94342772  0.63516618  0.78184701     0.08700
H1609       H  0.91181030  0.62355006  0.75975821     0.08700
H1610       H  0.96584124  0.49201974  0.81708100     0.08700
H1611       H  0.93826596  0.48205830  0.78946117     0.08700
H1612       H  0.92733411  0.49303355  0.82603222     0.05400
C1613       C  0.04861800  0.47174868  0.80061453    -0.20400
C1614       C  0.03711324  0.46263476  0.77300941    -0.06900
C1615       C  0.04393345  0.43401912  0.76244996     0.13900
C1616       C  0.06238896  0.41577131  0.77934965    -0.20400
C1617       C  0.07467371  0.42510500  0.80647080    -0.06900
C1618       C  0.06749417  0.45345746  0.81738374     0.13900
C1619       C  0.08044993  0.46500790  0.84592995    -0.23800
H1620       H  0.04330861  0.49360263  0.80884705     0.15200
H1621       H  0.06754615  0.39389598  0.77104783     0.15200
C1622       C  0.03142475  0.42199289  0.73381253    -0.23700
H1623       H  0.07330769  0.48803771  0.85048763     0.05500
H1624       H  0.10497635  0.46487040  0.84471387     0.08700
H1625       H  0.07309531  0.45100692  0.86470465     0.08700
H1626       H  0.04033032  0.43461063  0.71474465     0.08700
H1627       H  0.00690819  0.42336435  0.73404059     0.08700
H1628       H  0.03745151  0.39845333  0.73035598     0.05400
C1629       C  0.97542513  0.28081577  0.06508233    -0.20400
C1630       C  0.96400104  0.27095896  0.03802402    -0.06900
C1631       C  0.93452370  0.27704096  0.03024877     0.13900
C1632       C  0.91667275  0.29243529  0.05023203    -0.20400
C1633       C  0.92759940  0.30193874  0.07796635    -0.06900
C1634       C  0.95768529  0.29612848  0.08533702     0.13900
C1635       C  0.97167013  0.30591049  0.11413881    -0.23800
H1636       H  0.99839247  0.27632091  0.07040479     0.15200
H1637       H  0.89386041  0.29664256  0.04415636     0.15200
C1638       C  0.92205092  0.26751399  0.00072961    -0.23700
H1639       H  0.99563347  0.30060734  0.11507166     0.05500
H1640       H  0.96105922  0.29435279  0.13301333     0.08700
H1641       H  0.96947255  0.33022654  0.11669020     0.08700
H1642       H  0.92316922  0.24308492  0.99873175     0.08700
H1643       H  0.93504915  0.27773873  0.98258041     0.08700
H1644       H  0.89859346  0.27426007  0.99800944     0.05400
C1645       C  0.06997342  0.26621900  0.95915899    -0.20400
C1646       C  0.04104127  0.27640463  0.96291963    -0.06900
C1647       C  0.03221995  0.30313091  0.94898980     0.13900
C1648       C  0.05231170  0.31814360  0.93063660    -0.20400
C1649       C  0.08083107  0.30713928  0.92588925    -0.06900
C1650       C  0.09008007  0.28130001  0.94110803     0.13900
C1651       C  0.12131355  0.26972996  0.93908316    -0.23800
H1652       H  0.07691325  0.24623620  0.97046631     0.15200
H1653       H  0.04537207  0.33797236  0.91907097     0.15200
C1654       C  0.00138059  0.31532625  0.95216712    -0.23700
H1655       H  0.12521782  0.25120186  0.95476007     0.05500
H1656       H  0.13727298  0.28763192  0.94461708     0.08700
H1657       H  0.12577843  0.26118147  0.91653069     0.08700
H1658       H  0.99746016  0.32208995  0.97543519     0.08700
H1659       H  0.98486360  0.29835555  0.94544815     0.08700
H1660       H  0.99790433  0.33515605  0.93807029     0.05400
C1661       C  0.06783846  0.53894713  0.23660214    -0.20400
C1662       C  0.03797351  0.53717273  0.22837396    -0.06900
C1663       C  0.02716767  0.55537851  0.20528389     0.13900
C1664       C  0.04660712  0.57495356  0.19101561    -0.20400
C1665       C  0.07663309  0.57633083  0.19884871    -0.06900
C1666       C  0.08740069  0.55811220  0.22205289     0.13900
C1667       C  0.11915714  0.55948754  0.23246669    -0.23800
H1668       H  0.07593503  0.52507988  0.25445684     0.15200
H1669       H  0.03837053  0.58915662  0.17350352     0.15200
C1670       C  0.99501452  0.55508022  0.19630977    -0.23700
H1671       H  0.12304634  0.54510431  0.25203613     0.05500
H1672       H  0.12498465  0.58250230  0.23885813     0.08700
H1673       H  0.13412327  0.55182222  0.21466016     0.08700
H1674       H  0.98097801  0.55980118  0.21585665     0.08700
H1675       H  0.98898000  0.53319441  0.18693215     0.08700
H1676       H  0.99015592  0.57200485  0.17915156     0.05400
C1677       C  0.97356250  0.44291446  0.20504257    -0.20400
C1678       C  0.96229919  0.45915580  0.22900548    -0.06900
C1679       C  0.93198577  0.45638011  0.23628376     0.13900
C1680       C  0.91419209  0.43664404  0.22018676    -0.20400
C1681       C  0.92553666  0.41997163  0.19664876    -0.06900
C1682       C  0.95560329  0.42323809  0.18883207     0.13900
C1683       C  0.96864249  0.40672533  0.16302197    -0.23800
H1684       H  0.99667582  0.44537583  0.19921220     0.15200
H1685       H  0.89107907  0.43428045  0.22612047     0.15200
C1686       C  0.91708129  0.47457817  0.25989366    -0.23700
H1687       H  0.99201179  0.41320880  0.15907861     0.05500
H1688       H  0.95579314  0.41159311  0.14258509     0.08700
H1689       H  0.96822301  0.38258464  0.16737296     0.08700
H1690       H  0.93131692  0.49215040  0.26933592     0.08700
H1691       H  0.90954963  0.45986662  0.27806422     0.08700
H1692       H  0.89751122  0.48585286  0.25019821     0.05400
C1693       C  0.21684892  0.59003140  0.06077616    -0.20400
C1694       C  0.19344566  0.57861999  0.07766949    -0.06900
C1695       C  0.18572916  0.54843035  0.07487817     0.13900
C1696       C  0.20203293  0.53035645  0.05567595    -0.20400
C1697       C  0.22620830  0.54152810  0.03972228    -0.06900
C1698       C  0.23348110  0.57185800  0.04200733     0.13900
C1699       C  0.25811825  0.58540829  0.02411998    -0.23800
H1700       H  0.22262689  0.61323463  0.06283155     0.15200
H1701       H  0.19620876  0.50717938  0.05349186     0.15200
C1702       C  0.15994351  0.53533020  0.09142770    -0.23700
H1703       H  0.25952647  0.60971761  0.02739370     0.05500
H1704       H  0.25425629  0.58117306  0.00018529     0.08700
H1705       H  0.27967931  0.57588444  0.03090038     0.08700
H1706       H  0.13952451  0.54793982  0.08625658     0.08700
H1707       H  0.16425427  0.53600389  0.11562316     0.08700
H1708       H  0.15604241  0.51186768  0.08521708     0.05400
C1709       C  0.18434849  0.45123617  0.93085126    -0.20400
C1710       C  0.19613924  0.42310901  0.92556965    -0.06900
C1711       C  0.22249907  0.41465790  0.94052835     0.13900
C1712       C  0.23667766  0.43483591  0.95949253    -0.20400
C1713       C  0.22538788  0.46326741  0.96424763    -0.06900
C1714       C  0.19863619  0.47150883  0.94982071     0.13900
C1715       C  0.18551950  0.50194405  0.95313682    -0.23800
H1716       H  0.16428879  0.45771551  0.91935214     0.15200
H1717       H  0.25679687  0.42825952  0.97083053     0.15200
C1718       C  0.23561504  0.38414710  0.93734857    -0.23700
H1719       H  0.16599037  0.50508998  0.93846478     0.05500
H1720       H  0.20221032  0.51897931  0.94719985     0.08700
H1721       H  0.17798482  0.50537223  0.97622630     0.08700
H1722       H  0.24408368  0.38086400  0.91457264     0.08700
H1723       H  0.21862618  0.36712672  0.94243169     0.08700
H1724       H  0.25454140  0.38071198  0.95273205     0.05400
C1725       C  0.76583670  0.56558136  0.96147392    -0.20400
C1726       C  0.77527432  0.53612739  0.96320822    -0.06900
C1727       C  0.79982310  0.52696989  0.94616335     0.13900
C1728       C  0.81397775  0.54753247  0.92760443    -0.20400
C1729       C  0.80458803  0.57706713  0.92606054    -0.06900
C1730       C  0.78018264  0.58619884  0.94332717     0.13900
C1731       C  0.76819323  0.61727811  0.94187643    -0.23800
H1732       H  0.74703794  0.57256560  0.97452745     0.15200
H1733       H  0.83244924  0.54050466  0.91411975     0.15200
C1734       C  0.81049290  0.49541748  0.94644902    -0.23700
H1735       H  0.74796174  0.61986559  0.95548922     0.05500
H1736       H  0.76234940  0.62295005  0.91864841     0.08700
H1737       H  0.78490059  0.63316682  0.95046066     0.08700
H1738       H  0.79203380  0.48028037  0.94044285     0.08700
H1739       H  0.81912602  0.48963092  0.96873852     0.08700
H1740       H  0.82867199  0.49187593  0.93037824     0.05400
C1741       C  0.78483259  0.43926381  0.08824123    -0.20400
C1742       C  0.80541411  0.41945251  0.07612585    -0.06900
C1743       C  0.81018984  0.41965844  0.04511941     0.13900
C1744       C  0.79413903  0.43945135  0.02723924    -0.20400
C1745       C  0.77297506  0.45852362  0.03936364    -0.06900
C1746       C  0.76844189  0.45861682  0.07029351     0.13900
C1747       C  0.74706868  0.47969982  0.08463329    -0.23800
H1748       H  0.78111909  0.43924900  0.11194548     0.15200
H1749       H  0.79784677  0.43980991  0.00353063     0.15200
C1750       C  0.83262970  0.39976061  0.03073419    -0.23700
H1751       H  0.74753916  0.47786358  0.10916332     0.05500
H1752       H  0.72417742  0.47477290  0.07716879     0.08700
H1753       H  0.75290387  0.50281012  0.07867711     0.08700
H1754       H  0.82586042  0.37628722  0.03312578     0.08700
H1755       H  0.85467169  0.40322318  0.04113769     0.08700
H1756       H  0.83473348  0.40434554  0.00666296     0.05400
C1757       C  0.83998611  0.00310874  0.96568975    -0.20400
C1758       C  0.82479496  0.00171143  0.99269318    -0.06900
C1759       C  0.84112299  0.99963884  0.01942429     0.13900
C1760       C  0.87215067  0.99930427  0.01843342    -0.20400
C1761       C  0.88740680  0.00151407  0.99152323    -0.06900
C1762       C  0.87105824  0.00333143  0.96472299     0.13900
C1763       C  0.88606460  0.00455033  0.93498343    -0.23800
H1764       H  0.82742156  0.00440388  0.94521907     0.15200
H1765       H  0.88464009  0.99772433  0.03892475     0.15200
C1766       C  0.82608835  0.99683646  0.04902755    -0.23700
H1767       H  0.86981612  0.00402751  0.91645646     0.05500
H1768       H  0.90097643  0.98525603  0.93245670     0.08700
H1769       H  0.89898247  0.02533678  0.93291028     0.08700
H1770       H  0.81064120  0.97769958  0.04874873     0.08700
H1771       H  0.81378142  0.01738177  0.05408214     0.08700
H1772       H  0.84226439  0.99332115  0.06727144     0.05400
C1773       C  0.00135134  0.83754299  0.96832504    -0.20400
C1774       C  0.00148922  0.82269412  0.99565926    -0.06900
C1775       C  0.99988483  0.83946562  0.02208339     0.13900
C1776       C  0.99887626  0.87051358  0.02045457    -0.20400
C1777       C  0.99982685  0.88539959  0.99317055    -0.06900
C1778       C  0.00071184  0.86859994  0.96669679     0.13900
C1779       C  0.99997026  0.88311962  0.93662870    -0.23800
H1780       H  0.00208074  0.82472520  0.94805269     0.15200
H1781       H  0.99785790  0.88331621  0.04072397     0.15200
C1782       C  0.99824840  0.82485955  0.05204279    -0.23700
H1783       H  0.99881605  0.86655709  0.91848560     0.05500
H1784       H  0.02029115  0.89647324  0.93322981     0.08700
H1785       H  0.98020761  0.89753855  0.93477809     0.08700
H1786       H  0.01910278  0.81286686  0.05678589     0.08700
H1787       H  0.97931589  0.80916936  0.05258055     0.08700
H1788       H  0.99507420  0.84126833  0.07004807     0.05400
C1789       C  0.00580813  0.02719268  0.83106994    -0.20400
C1790       C  0.00142615  0.00025255  0.81612359    -0.06900
C1791       C  0.99756065  0.97402894  0.83293382     0.13900
C1792       C  0.99847714  0.97551462  0.86400276    -0.20400
C1793       C  0.00235344  0.00249039  0.87882896    -0.06900
C1794       C  0.00598954  0.02870704  0.86216658     0.13900
C1795       C  0.01101532  0.05816311  0.87701649    -0.23800
H1796       H  0.00880880  0.04728197  0.81832153     0.15200
H1797       H  0.99569077  0.95547935  0.87690161     0.15200
C1798       C  0.99329928  0.94422042  0.81852142    -0.23700
H1799       H  0.01485185  0.07607093  0.86062638     0.05500
H1800       H  0.03072817  0.05693706  0.89172313     0.08700
H1801       H  0.99135073  0.06429289  0.89025531     0.08700
H1802       H  0.01181274  0.93972729  0.80310289     0.08700
H1803       H  0.97195200  0.94360220  0.80631425     0.08700
H1804       H  0.99272946  0.92608755  0.83510696     0.05400
C1805       C  0.02956089  0.16434579  0.99465176    -0.20400
C1806       C  0.00229494  0.17915627  0.99465578    -0.06900
C1807       C  0.97583268  0.16236882  0.99323086     0.13900
C1808       C  0.97735333  0.13135408  0.99256463    -0.20400
C1809       C  0.00454096  0.11647442  0.99381536    -0.06900
C1810       C  0.03105823  0.13325026  0.99453137     0.13900
C1811       C  0.06098711  0.11862760  0.99433004    -0.23800
H1812       H  0.04983091  0.17719901  0.99538850     0.15200
H1813       H  0.95704902  0.11856472  0.99163061     0.15200
C1814       C  0.94588985  0.17690241  0.99156608    -0.23700
H1815       H  0.07920741  0.13511378  0.99316567     0.05500
H1816       H  0.06278792  0.10386222  0.97477215     0.08700
H1817       H  0.06422310  0.10558820  0.01489691     0.08700
H1818       H  0.94522302  0.19257988  0.97264684     0.08700
H1819       H  0.94124474  0.18885803  0.01247012     0.08700
H1820       H  0.92787550  0.16045086  0.98830076     0.05400
C1821       C  0.13072587  0.96975138  0.99131217    -0.20400
C1822       C  0.11685733  0.99714398  0.99599161    -0.06900
C1823       C  0.13465974  0.02257041  0.00091850     0.13900
C1824       C  0.16560707  0.01981927  0.00107318    -0.20400
C1825       C  0.17932360  0.99235008  0.99711685    -0.06900
C1826       C  0.16168865  0.96698863  0.99205852     0.13900
C1827       C  0.17540511  0.93719392  0.98643264    -0.23800
H1828       H  0.11722964  0.95028185  0.98736105     0.15200
H1829       H  0.17927318  0.03924535  0.00467275     0.15200
C1830       C  0.12142338  0.05285085  0.00518297    -0.23700
H1831       H  0.15840466  0.92008074  0.98151051     0.05500
H1832       H  0.18797360  0.92985542  0.00624711     0.08700
H1833       H  0.19053291  0.93859046  0.96717386     0.08700
H1834       H  0.10852460  0.05350327  0.02601638     0.08700
H1835       H  0.10685866  0.05836516  0.98610986     0.08700
H1836       H  0.13871885  0.07028103  0.00680542     0.05400
C1837       C  0.00019677  0.02956793  0.12407542    -0.20400
C1838       C  0.00165532  0.00206552  0.10975843    -0.06900
C1839       C  0.00371115  0.97607863  0.12710099     0.13900
C1840       C  0.00424673  0.97832102  0.15820683    -0.20400
C1841       C  0.00210955  0.00579984  0.17260400    -0.06900
C1842       C  0.99999671  0.03180139  0.15516905     0.13900
C1843       C  0.99841971  0.06209171  0.16901105    -0.23800
H1844       H  0.99879868  0.04947648  0.11077055     0.15200
H1845       H  0.00596906  0.95837940  0.17141468     0.15200
C1846       C  0.00631778  0.94600349  0.11297170    -0.23700
H1847       H  0.99891008  0.07988285  0.15205641     0.05500
H1848       H  0.01757346  0.06548938  0.18412546     0.08700
H1849       H  0.97748298  0.06448255  0.18148916     0.08700
H1850       H  0.02578222  0.94554833  0.09806925     0.08700
H1851       H  0.98599568  0.94086527  0.10007508     0.08700
H1852       H  0.00917870  0.92829353  0.12978075     0.05400
C1853       C  0.02735877  0.63276651  0.50327302    -0.20400
C1854       C  0.00007757  0.61788952  0.50120400    -0.06900
C1855       C  0.97373128  0.63475237  0.49939673     0.13900
C1856       C  0.97546004  0.66580071  0.49952523    -0.20400
C1857       C  0.00276169  0.68057710  0.50071722    -0.06900
C1858       C  0.02906394  0.66384127  0.50273510     0.13900
C1859       C  0.05889767  0.67860823  0.50524237    -0.23800
H1860       H  0.04754013  0.61997096  0.50486090     0.15200
H1861       H  0.95531793  0.67870235  0.49825969     0.15200
C1862       C  0.94362710  0.62033110  0.49820069    -0.23700
H1863       H  0.07693507  0.66222939  0.50817000     0.05500
H1864       H  0.05923459  0.69368404  0.52465633     0.08700
H1865       H  0.06362702  0.69139363  0.48482845     0.08700
H1866       H  0.94081947  0.60537687  0.51749686     0.08700
H1867       H  0.94106490  0.60759447  0.47734159     0.08700
H1868       H  0.92556315  0.63691469  0.49879283     0.05400
C1869       C  0.86767275  0.50049471  0.52567023    -0.20400
C1870       C  0.88312056  0.50406564  0.49895487    -0.06900
C1871       C  0.86683169  0.50700365  0.47219579     0.13900
C1872       C  0.83576527  0.50613172  0.47295490    -0.20400
C1873       C  0.82042489  0.50310228  0.49970884    -0.06900
C1874       C  0.83659244  0.50027634  0.52644585     0.13900
C1875       C  0.82128622  0.49603046  0.55573543    -0.23800
H1876       H  0.88002392  0.49812396  0.54616467     0.15200
H1877       H  0.82328404  0.50808678  0.45248840     0.15200
C1878       C  0.88186350  0.51009901  0.44260448    -0.23700
H1879       H  0.83734471  0.49241360  0.57406287     0.05500
H1880       H  0.80642645  0.47646163  0.55460748     0.08700
H1881       H  0.80823451  0.51599235  0.56125395     0.08700
H1882       H  0.89711197  0.49123899  0.43904899     0.08700
H1883       H  0.89438030  0.53121903  0.44170315     0.08700
H1884       H  0.86567262  0.51030421  0.42402537     0.05400
C1885       C  0.97276160  0.50281581  0.63086601    -0.20400
C1886       C  0.99984985  0.50255217  0.61587722    -0.06900
C1887       C  0.02650725  0.50168988  0.63242487     0.13900
C1888       C  0.02528468  0.50124031  0.66352280    -0.20400
C1889       C  0.99818467  0.50228222  0.67855336    -0.06900
C1890       C  0.97152213  0.50301500  0.66192735     0.13900
C1891       C  0.94160881  0.50306261  0.67658123    -0.23800
H1892       H  0.95238074  0.50328699  0.61812313     0.15200
H1893       H  0.04567586  0.50045109  0.67622284     0.15200
C1894       C  0.05625050  0.50028039  0.61751552    -0.23700
H1895       H  0.92333757  0.50148324  0.66011750     0.05500
H1896       H  0.93845599  0.52392439  0.68908181     0.08700
H1897       H  0.93971206  0.48386922  0.69179952     0.08700
H1898       H  0.06027302  0.52082590  0.60470648     0.08700
H1899       H  0.05701669  0.48090017  0.60243783     0.08700
H1900       H  0.07455691  0.49804162  0.63384872     0.05400
C1901       C  0.12778665  0.49988406  0.53047009    -0.20400
C1902       C  0.11339297  0.49791544  0.50286668    -0.06900
C1903       C  0.13057097  0.49559936  0.47684776     0.13900
C1904       C  0.16154997  0.49531575  0.47915403    -0.20400
C1905       C  0.17589820  0.49685682  0.50674220    -0.06900
C1906       C  0.15880686  0.49920373  0.53276625     0.13900
C1907       C  0.17311083  0.50222465  0.56283659    -0.23800
H1908       H  0.11464374  0.50188577  0.55039259     0.15200
H1909       H  0.17474147  0.49386570  0.45921417     0.15200
C1910       C  0.11653589  0.49462796  0.44650185    -0.23700
H1911       H  0.15644439  0.50535852  0.58055309     0.05500
H1912       H  0.18816271  0.52167689  0.56304935     0.08700
H1913       H  0.18584303  0.48196726  0.56818877     0.08700
H1914       H  0.10222977  0.51429450  0.44327069     0.08700
H1915       H  0.10314040  0.47418001  0.44399092     0.08700
H1916       H  0.13338401  0.49463515  0.42867179     0.05400
C1917       C  0.01802619  0.37102860  0.48890126    -0.20400
C1918       C  0.99379587  0.38647461  0.50076215    -0.06900
C1919       C  0.96937650  0.36982086  0.51161683     0.13900
C1920       C  0.97021304  0.33868702  0.51060003    -0.20400
C1921       C  0.99477128  0.32359771  0.49943298    -0.06900
C1922       C  0.01881573  0.33999445  0.48804607     0.13900
C1923       C  0.04539703  0.32556875  0.47415621    -0.23800
H1924       H  0.03677180  0.38322699  0.48025190     0.15200
H1925       H  0.95176888  0.32594565  0.51912920     0.15200
C1926       C  0.94211645  0.38434546  0.52398924    -0.23700
H1927       H  0.04804051  0.33382318  0.45115218     0.05500
H1928       H  0.04357767  0.30116962  0.47296076     0.08700
H1929       H  0.06555458  0.33128791  0.48710291     0.08700
H1930       H  0.93239140  0.39950412  0.50725398     0.08700
H1931       H  0.94781939  0.39676766  0.54443905     0.08700
H1932       H  0.92488108  0.36786685  0.52997542     0.05400
C1933       C  0.99502412  0.52566621  0.33707074    -0.20400
C1934       C  0.00137119  0.49875049  0.32309635    -0.06900
C1935       C  0.00747335  0.47357298  0.34048040     0.13900
C1936       C  0.00682773  0.47585372  0.37147567    -0.20400
C1937       C  0.99981928  0.50259959  0.38571339    -0.06900
C1938       C  0.99384827  0.52794011  0.36811393     0.13900
C1939       C  0.98689669  0.55761145  0.38160724    -0.23800
H1940       H  0.99051811  0.54495014  0.32352847     0.15200
H1941       H  0.01152051  0.45640091  0.38468627     0.15200
C1942       C  0.01554250  0.44447543  0.32644739    -0.23700
H1943       H  0.98455728  0.57509177  0.36447552     0.05500
H1944       H  0.00499661  0.56438834  0.39689034     0.08700
H1945       H  0.96566529  0.55646016  0.39379097     0.08700
H1946       H  0.03519332  0.44745323  0.31207410     0.08700
H1947       H  0.99674695  0.43604566  0.31297408     0.08700
H1948       H  0.02094682  0.42743851  0.34332971     0.05400
C1949       C  0.48966378  0.87275526  0.47326642    -0.20400
C1950       C  0.49822871  0.88790373  0.49915047    -0.06900
C1951       C  0.50733229  0.87098016  0.52408835     0.13900
C1952       C  0.50807778  0.83991216  0.52214392    -0.20400
C1953       C  0.49967917  0.82478462  0.49622981    -0.06900
C1954       C  0.49021860  0.84165897  0.47140263     0.13900
C1955       C  0.48145150  0.82741925  0.44243689    -0.23800
H1956       H  0.48274480  0.88538406  0.45406047     0.15200
H1957       H  0.51498012  0.82725737  0.54133866     0.15200
C1958       C  0.51561580  0.88512567  0.55324778    -0.23700
H1959       H  0.47684882  0.84410884  0.42497530     0.05500
H1960       H  0.46095409  0.81419539  0.44529281     0.08700
H1961       H  0.49962776  0.81308024  0.43441351     0.08700
H1962       H  0.49717595  0.89919462  0.56116060     0.08700
H1963       H  0.53599464  0.89860234  0.55071275     0.08700
H1964       H  0.52018155  0.86838370  0.57066716     0.05400
C1965       C  0.66083491  0.02155724  0.48939114    -0.20400
C1966       C  0.67496028  0.99652431  0.50130236    -0.06900
C1967       C  0.65706765  0.97404617  0.51416360     0.13900
C1968       C  0.62609264  0.97711293  0.51395032    -0.20400
C1969       C  0.61206746  0.00187461  0.50138362    -0.06900
C1970       C  0.62994721  0.02463268  0.48923902     0.13900
C1971       C  0.61706795  0.05263963  0.47643252    -0.23800
H1972       H  0.67405481  0.03913085  0.47995158     0.15200
H1973       H  0.61265264  0.95964001  0.52338343     0.15200
C1974       C  0.66987859  0.94638258  0.52774315    -0.23700
H1975       H  0.63452481  0.06861210  0.46976569     0.05500
H1976       H  0.60301202  0.06372236  0.49318069     0.08700
H1977       H  0.60386816  0.04749268  0.45629236     0.08700
H1978       H  0.68376871  0.95217982  0.54724188     0.08700
H1979       H  0.68318555  0.93431784  0.51106871     0.08700
H1980       H  0.65238858  0.93101907  0.53562816     0.05400
C1981       C  0.50056127  0.97681750  0.62976560    -0.20400
C1982       C  0.49161411  0.00277582  0.61520797    -0.06900
C1983       C  0.48237397  0.02714999  0.63265846     0.13900
C1984       C  0.48320479  0.02503643  0.66380770    -0.20400
C1985       C  0.49288259  0.99927673  0.67839471    -0.06900
C1986       C  0.50115352  0.97456897  0.66084031     0.13900
C1987       C  0.50998509  0.94531383  0.67425963    -0.23800
H1988       H  0.50712562  0.95789297  0.61663467     0.15200
H1989       H  0.47669702  0.04400901  0.67688087     0.15200
C1990       C  0.47241418  0.05585398  0.61889721    -0.23700
H1991       H  0.51309858  0.92799229  0.65711897     0.05500
H1992       H  0.49246588  0.93743304  0.68953300     0.08700
H1993       H  0.53132716  0.94756627  0.68627674     0.08700
H1994       H  0.45192120  0.05221773  0.60575479     0.08700
H1995       H  0.49010003  0.06483735  0.60444601     0.08700
H1996       H  0.46738819  0.07284115  0.63590398     0.05400
C1997       C  0.52323808  0.13409119  0.48911926    -0.20400
C1998       C  0.49917094  0.11941194  0.50231629    -0.06900
C1999       C  0.47667644  0.13678699  0.51558208     0.13900
C2000       C  0.47851345  0.16779610  0.51425321    -0.20400
C2001       C  0.50217759  0.18243993  0.50036039    -0.06900
C2002       C  0.52521096  0.16511935  0.48808767     0.13900
C2003       C  0.55247042  0.17874440  0.47452273    -0.23800
H2004       H  0.54087892  0.12116324  0.47945746     0.15200
H2005       H  0.46090746  0.18074156  0.52395397     0.15200
C2006       C  0.45029531  0.12328343  0.53092287    -0.23700
H2007       H  0.56903392  0.16176799  0.46832649     0.05500
H2008       H  0.56319586  0.19399026  0.49061368     0.08700
H2009       H  0.54654744  0.19080687  0.45398726     0.08700
H2010       H  0.45772863  0.11005726  0.55027520     0.08700
H2011       H  0.43768591  0.10913478  0.51519591     0.08700
H2012       H  0.43486760  0.14036276  0.53936485     0.05400
C2013       C  0.36780860  0.03099979  0.50016812    -0.20400
C2014       C  0.38232332  0.00478265  0.49218102    -0.06900
C2015       C  0.36504556  0.98012371  0.48320151     0.13900
C2016       C  0.33403698  0.98218934  0.48342277    -0.20400
C2017       C  0.31942251  0.00821673  0.49205435    -0.06900
C2018       C  0.33681857  0.03323072  0.49995074     0.13900
C2019       C  0.32338214  0.06281088  0.50707173    -0.23800
H2020       H  0.38089174  0.05015392  0.50642133     0.15200
H2021       H  0.32109589  0.96294672  0.47719912     0.15200
C2022       C  0.37879725  0.95117402  0.47413261    -0.23700
H2023       H  0.34050245  0.08011866  0.51071948     0.05500
H2024       H  0.31019947  0.06143725  0.52767950     0.08700
H2025       H  0.30943006  0.07005830  0.48816595     0.08700
H2026       H  0.39309145  0.94268331  0.49227775     0.08700
H2027       H  0.39202227  0.95426950  0.45371311     0.08700
H2028       H  0.36183104  0.93401800  0.46924467     0.05400
C2029       C  0.48519911  0.98221253  0.36741764    -0.20400
C2030       C  0.49977387  0.00543070  0.38232959    -0.06900
C2031       C  0.51379821  0.02758064  0.36495840     0.13900
C2032       C  0.51258743  0.02580984  0.33379036    -0.20400
C2033       C  0.49794858  0.00257033  0.31888136    -0.06900
C2034       C  0.48412991  0.98031079  0.33631115     0.13900
C2035       C  0.46855462  0.95393875  0.32285258    -0.23800
H2036       H  0.47454915  0.96500744  0.38025785     0.15200
H2037       H  0.52320254  0.04303646  0.32095252     0.15200
C2038       C  0.52995633  0.05344378  0.37867555    -0.23700
H2039       H  0.46045279  0.93828926  0.33997597     0.05500
H2040       H  0.48401815  0.94155856  0.30842733     0.08700
H2041       H  0.44894166  0.96127030  0.30997265     0.08700
H2042       H  0.54900284  0.04543696  0.39200850     0.08700
H2043       H  0.51464546  0.06629482  0.39284366     0.08700
H2044       H  0.53887921  0.06877429  0.36166906     0.05400
C2045       C  0.51410177  0.62849965  0.97993744    -0.20400
C2046       C  0.49984377  0.61461670  0.00384909    -0.06900
C2047       C  0.48709874  0.63268395  0.02608003     0.13900
C2048       C  0.48876161  0.66365680  0.02349664    -0.20400
C2049       C  0.50282935  0.67759337  0.99942632    -0.06900
C2050       C  0.51587867  0.65942747  0.97735519     0.13900
C2051       C  0.53153032  0.67184591  0.95061262    -0.23800
H2052       H  0.52392056  0.61500370  0.96280915     0.15200
H2053       H  0.47896467  0.67706993  0.04069344     0.15200
C2054       C  0.47206606  0.61990815  0.05298513    -0.23700
H2055       H  0.53941518  0.65418325  0.93551452     0.05500
H2056       H  0.55130369  0.68467978  0.95768522     0.08700
H2057       H  0.51620248  0.68603766  0.93766986     0.08700
H2058       H  0.48767952  0.60546986  0.06530273     0.08700
H2059       H  0.45219530  0.60709442  0.04617425     0.08700
H2060       H  0.46455886  0.63739933  0.06847569     0.05400
C2061       C  0.66451036  0.48829228  0.02668543    -0.20400
C2062       C  0.67920236  0.50185344  0.00283569    -0.06900
C2063       C  0.66174197  0.51595303  0.98068302     0.13900
C2064       C  0.63069024  0.51539335  0.98287665    -0.20400
C2065       C  0.61603928  0.50124289  0.00640609    -0.06900
C2066       C  0.63349344  0.48776897  0.02887533     0.13900
C2067       C  0.62004708  0.47293016  0.05558251    -0.23800
H2068       H  0.67740298  0.47781655  0.04399665     0.15200
H2069       H  0.61769951  0.52589185  0.96563283     0.15200
C2070       C  0.67509079  0.53126267  0.95418724    -0.23700
H2071       H  0.63717051  0.46490808  0.07134347     0.05500
H2072       H  0.60683553  0.45339474  0.04859598     0.08700
H2073       H  0.60589436  0.48884373  0.06770938     0.08700
H2074       H  0.68875753  0.51544553  0.94140172     0.08700
H2075       H  0.68871347  0.55038913  0.96152095     0.08700
H2076       H  0.65791426  0.54001770  0.93888721     0.05400
C2077       C  0.48952555  0.47634331  0.84071853    -0.20400
C2078       C  0.50296287  0.50022688  0.82585863    -0.06900
C2079       C  0.51629882  0.52287349  0.84328269     0.13900
C2080       C  0.51526729  0.52109485  0.87440597    -0.20400
C2081       C  0.50130628  0.49752382  0.88921297    -0.06900
C2082       C  0.48845261  0.47461659  0.87183497     0.13900
C2083       C  0.47376592  0.44793067  0.88551157    -0.23800
H2084       H  0.47956760  0.45866469  0.82787439     0.15200
H2085       H  0.52525681  0.53870335  0.88732949     0.15200
C2086       C  0.53123813  0.54949472  0.82976558    -0.23700
H2087       H  0.46618207  0.43181878  0.86850746     0.05500
H2088       H  0.45397001  0.45480861  0.89819235     0.08700
H2089       H  0.48963336  0.43631002  0.90027616     0.08700
H2090       H  0.51533627  0.56169281  0.81552561     0.08700
H2091       H  0.55068613  0.54244321  0.81664741     0.08700
H2092       H  0.53944332  0.56519395  0.84686913     0.05400
C2093       C  0.48158896  0.52199147  0.13595236    -0.20400
C2094       C  0.49901254  0.50062934  0.12159486    -0.06900
C2095       C  0.51511426  0.48032308  0.13942774     0.13900
C2096       C  0.51308438  0.48196168  0.17045892    -0.20400
C2097       C  0.49560856  0.50326000  0.18487993    -0.06900
C2098       C  0.47962206  0.52369237  0.16703589     0.13900
C2099       C  0.46056338  0.54771975  0.18002746    -0.23800
H2100       H  0.46929778  0.53775513  0.12271124     0.15200
H2101       H  0.52541609  0.46613411  0.18357009     0.15200
C2102       C  0.53446422  0.45652267  0.12640734    -0.23700
H2103       H  0.45055899  0.56195444  0.16263967     0.05500
H2104       H  0.47411310  0.56226218  0.19456864     0.08700
H2105       H  0.44205993  0.53777059  0.19270354     0.08700
H2106       H  0.55271225  0.46671274  0.11354165     0.08700
H2107       H  0.52105476  0.44172721  0.11199080     0.08700
H2108       H  0.54480526  0.44250305  0.14377616     0.05400
C2109       C  0.36901157  0.50634498  0.02931906    -0.20400
C2110       C  0.38413492  0.49743551  0.00369866    -0.06900
C2111       C  0.36724264  0.48907282  0.97845420     0.13900
C2112       C  0.33612798  0.49023915  0.97953201    -0.20400
C2113       C  0.32099160  0.49952763  0.00502709    -0.06900
C2114       C  0.33790709  0.50735223  0.03047626     0.13900
C2115       C  0.32368773  0.51595067  0.05937951    -0.23800
H2116       H  0.38168922  0.51241420  0.04884139     0.15200
H2117       H  0.32349608  0.48420799  0.95997445     0.15200
C2118       C  0.38160249  0.47971321  0.94987769    -0.23700
H2119       H  0.34029601  0.51887683  0.07735773     0.05500
H2120       H  0.30801133  0.49841315  0.06648993     0.08700
H2121       H  0.31194008  0.53730400  0.05693658     0.08700
H2122       H  0.39401381  0.45884083  0.95324027     0.08700
H2123       H  0.39679357  0.49735615  0.94202021     0.08700
H2124       H  0.36502980  0.47559238  0.93210129     0.05400
C2125       C  0.48461801  0.36846139  0.98619648    -0.20400
C2126       C  0.50329349  0.38361199  0.00612093    -0.06900
C2127       C  0.52212829  0.36658536  0.02471944     0.13900
C2128       C  0.52156897  0.33550908  0.02273275    -0.20400
C2129       C  0.50278205  0.32028613  0.00286446    -0.06900
C2130       C  0.48397627  0.33740015  0.98424845     0.13900
C2131       C  0.46300787  0.32370242  0.96201898    -0.23800
H2132       H  0.47014523  0.38105962  0.97179919     0.15200
H2133       H  0.53608504  0.32301374  0.03716231     0.15200
C2134       C  0.54300690  0.38052297  0.04691074    -0.23700
H2135       H  0.45058889  0.34064417  0.94925681     0.05500
H2136       H  0.44639170  0.30981553  0.97357769     0.08700
H2137       H  0.47554420  0.31028946  0.94578480     0.08700
H2138       H  0.53033658  0.39363272  0.06329586     0.08700
H2139       H  0.55923173  0.39486863  0.03533897     0.08700
H2140       H  0.55580436  0.36370979  0.05946716     0.05400
loop_ 
_geom_bond_atom_site_label_1 
_geom_bond_atom_site_label_2 
_geom_bond_distance 
_geom_bond_site_symmetry_2 
_ccdc_geom_bond_type 
Zn1           O5   1.963       .  S
Zn1           O6   2.024       .  S
Zn1          O10   2.027       .  S
Zn1          O17   2.026       .  S
Zn2           O5   1.968   1_556  S
Zn2           O7   2.033       .  S
Zn2           O9   2.031       .  S
Zn2          O13   2.019       .  S
Zn3           O5   1.965   1_556  S
Zn3           O8   2.031       .  S
Zn3          O11   2.033       .  S
Zn3          O14   2.036       .  S
Zn4           O5   1.972       .  S
Zn4          O12   2.038       .  S
Zn4          O15   2.031       .  S
Zn4          O16   2.036       .  S
O6           C18   1.273       .  A
O7           C19   1.276       .  A
O8           C20   1.277   1_556  A
O9           C18   1.275   1_556  A
O10          C20   1.274       .  A
O11          C19   1.274       .  A
O12          C21   1.277       .  A
O13          C22   1.275   1_556  A
O14          C21   1.275   1_556  A
O15          C22   1.275       .  A
O16          C23   1.276       .  A
O17          C23   1.273       .  A
C18        C2065   1.501       .  S
C19        C2081   1.503       .  S
C20        C2126   1.504       .  S
C21        C2110   1.499       .  S
C22        C2046   1.498       .  S
C23        C2094   1.503       .  S
Zn24         O28   1.967   1_565  S
Zn24         O29   2.044       .  S
Zn24         O33   2.034       .  S
Zn24         O40   2.024       .  S
Zn25         O28   1.965   1_565  S
Zn25         O30   2.027       .  S
Zn25         O32   2.025       .  S
Zn25         O36   2.036       .  S
Zn26         O28   1.967       .  S
Zn26         O31   2.041       .  S
Zn26         O34   2.018       .  S
Zn26         O37   2.031       .  S
Zn27         O28   1.967       .  S
Zn27         O35   2.020       .  S
Zn27         O38   2.034       .  S
Zn27         O39   2.020       .  S
O29          C41   1.277       .  A
O30          C42   1.276   1_565  A
O31          C43   1.275       .  A
O32          C41   1.274       .  A
O33          C43   1.276   1_565  A
O34          C42   1.273       .  A
O35          C44   1.273       .  A
O36          C45   1.276   1_565  A
O37          C44   1.276       .  A
O38          C45   1.274       .  A
O39          C46   1.276       .  A
O40          C46   1.274   1_565  A
C41        C1950   1.500       .  S
C42        C1969   1.495       .  S
C43        C2030   1.506       .  S
C44        C1998   1.499       .  S
C45        C1982   1.498       .  S
C46        C2014   1.491       .  S
Zn47         O51   1.967       .  S
Zn47         O52   2.033       .  S
Zn47         O56   2.028       .  S
Zn47         O63   2.023       .  S
Zn48         O51   1.964   1_455  S
Zn48         O53   2.022       .  S
Zn48         O55   2.032       .  S
Zn48         O59   2.026       .  S
Zn49         O51   1.963       .  S
Zn49         O54   2.020       .  S
Zn49         O57   2.022       .  S
Zn49         O60   2.022       .  S
Zn50         O51   1.968   1_455  S
Zn50         O58   2.037       .  S
Zn50         O61   2.019       .  S
Zn50         O62   2.016       .  S
O52          C64   1.274       .  A
O53          C65   1.275   1_455  A
O54          C66   1.273       .  A
O55          C64   1.276   1_455  A
O56          C66   1.275       .  A
O57          C65   1.273       .  A
O58          C67   1.276   1_455  A
O59          C68   1.274       .  A
O60          C67   1.273       .  A
O61          C68   1.274       .  A
O62          C69   1.273   1_455  A
O63          C69   1.275       .  A
C64        C1918   1.500       .  S
C65        C1937   1.490       .  S
C66        C1870   1.488       .  S
C67        C1854   1.489   1_655  S
C68        C1902   1.484       .  S
C69        C1886   1.481       .  S
Zn70         O74   1.970   1_664  S
Zn70         O75   2.035       .  S
Zn70         O79   2.036       .  S
Zn70         O86   2.030       .  S
Zn71         O74   1.965   1_554  S
Zn71         O76   2.018       .  S
Zn71         O78   2.033       .  S
Zn71         O82   2.030       .  S
Zn72         O74   1.967   1_565  S
Zn72         O77   2.022       .  S
Zn72         O80   2.028       .  S
Zn72         O83   2.026       .  S
Zn73         O74   1.966   1_655  S
Zn73         O81   2.018       .  S
Zn73         O84   2.023       .  S
Zn73         O85   2.014       .  S
O75          C87   1.275   1_665  A
O76          C88   1.274   1_544  A
O77          C89   1.273       .  A
O78          C87   1.275       .  A
O79          C89   1.275   1_654  A
O80          C88   1.276       .  A
O81          C90   1.272   1_655  A
O82          C91   1.274   1_554  A
O83          C90   1.274   1_565  A
O84          C91   1.274   1_655  A
O85          C92   1.273       .  A
O86          C92   1.276   1_564  A
C87        C1838   1.487       .  S
C88        C1822   1.487       .  S
C89        C1777   1.488   1_455  S
C90        C1793   1.480       .  S
C91        C1809   1.487       .  S
C92        C1761   1.484       .  S
C93        C1745   1.479       .  S
C93          N94   1.360       .  A
C93          N98   1.356       .  A
N94          C95   1.362       .  A
C95        C2062   1.503       .  S
C95          N96   1.358   1_554  A
N96          C97   1.359       .  A
C97        C1726   1.481       .  S
C97          N98   1.356   1_556  A
C99        C1697   1.478       .  S
C99         N100   1.358       .  A
C99         N104   1.355       .  A
N100        C101   1.359       .  A
C101       C2113   1.500       .  S
C101        N102   1.364   1_554  A
N102        C103   1.364       .  A
C103       C1713   1.489       .  S
C103        N104   1.355   1_556  A
C105       C1678   1.478       .  S
C105        N106   1.357   1_655  A
C105        N110   1.360       .  A
N106        C107   1.357       .  A
C107       C1662   1.476       .  S
C107        N108   1.359       .  A
N108        C109   1.358       .  A
C109       C1934   1.477       .  S
C109        N110   1.359   1_455  A
C111       C1646   1.479       .  S
C111        N112   1.353   1_556  A
C111        N116   1.363       .  A
N112        C113   1.351   1_455  A
C113       C1630   1.462       .  S
C113        N114   1.356       .  A
N114        C115   1.359   1_654  A
C115       C1806   1.486       .  S
C115        N116   1.362       .  A
C117       C1598   1.475       .  S
C117        N118   1.357       .  A
C117        N122   1.356       .  A
N118        C119   1.356       .  A
C119       C1889   1.484       .  S
C119        N120   1.359   1_655  A
N120        C121   1.361       .  A
C121       C1614   1.485       .  S
C121        N122   1.357   1_455  A
Zn123       O127   1.982       .  S
Zn123       O128   2.071       .  S
Zn123       O132   2.071       .  S
Zn123       O139   2.059       .  S
Zn124       O127   1.936       .  S
Zn124       O129   1.993       .  S
Zn124       O131   1.962       .  S
Zn124       O135   2.004       .  S
Zn125       O127   1.936       .  S
Zn125       O130   1.970       .  S
Zn125       O133   1.993       .  S
Zn125       O136   1.982       .  S
Zn126       O127   1.949       .  S
Zn126       O134   2.010       .  S
Zn126       O137   2.013       .  S
Zn126       O138   1.964       .  S
O128        C140   1.280       .  A
O129        C141   1.271       .  A
O130        C142   1.267       .  A
O131        C140   1.269       .  A
O132        C142   1.280       .  A
O133        C141   1.268       .  A
O134        C143   1.271       .  A
O135        C144   1.271       .  A
O136        C143   1.266       .  A
O137        C144   1.270       .  A
O138        C145   1.268       .  A
O139        C145   1.280       .  A
C140       C1617   1.485       .  S
C141       C1585   1.484       .  S
C142       C1710   1.486       .  S
C143       C1566   1.488       .  S
C144       C1550   1.493       .  S
C145       C1649   1.478       .  S
C146       C1537   1.476       .  S
C146        N147   1.355   1_655  A
C146        N151   1.358       .  A
N147        C148   1.355   1_556  A
C148       C1521   1.481       .  S
C148        N149   1.361       .  A
N149        C150   1.362   1_554  A
C150       C1774   1.487       .  S
C150        N151   1.360   1_455  A
Zn152       O156   1.921       .  S
Zn152       O157   1.978       .  S
Zn152       O161   1.970       .  S
Zn152       O168   1.969       .  S
Zn153       O156   1.954       .  S
Zn153       O158   2.001       .  S
Zn153       O160   2.016       .  S
Zn153       O164   1.998       .  S
Zn154       O156   1.962       .  S
Zn154       O159   2.043       .  S
Zn154       O162   2.028       .  S
Zn154       O165   2.011       .  S
Zn155       O156   1.970       .  S
Zn155       O163   2.024       .  S
Zn155       O166   2.019       .  S
Zn155       O167   2.047       .  S
O157        C169   1.268       .  A
O158        C170   1.273       .  A
O159        C171   1.273       .  A
O160        C169   1.270       .  A
O161        C171   1.267       .  A
O162        C170   1.275       .  A
O163        C172   1.276       .  A
O164        C173   1.272       .  A
O165        C172   1.275       .  A
O166        C173   1.275       .  A
O167        C174   1.274       .  A
O168        C174   1.267       .  A
C169       C1470   1.464       .  S
C170       C1534   1.481       .  S
C171       C1486   1.469       .  S
C172       C1729   1.481       .  S
C173       C1601   1.476       .  S
C174       C1502   1.472       .  S
Zn175       O179   1.966       .  S
Zn175       O180   2.040       .  S
Zn175       O184   2.011       .  S
Zn175       O191   2.025       .  S
Zn176       O179   1.918       .  S
Zn176       O181   1.978       .  S
Zn176       O183   1.965       .  S
Zn176       O187   1.971       .  S
Zn177       O179   1.962       .  S
Zn177       O182   2.005       .  S
Zn177       O185   2.039       .  S
Zn177       O188   2.020       .  S
Zn178       O179   1.955       .  S
Zn178       O186   2.014       .  S
Zn178       O189   2.024       .  S
Zn178       O190   2.024       .  S
O180        C192   1.273       .  A
O181        C193   1.268       .  A
O182        C194   1.272       .  A
O183        C192   1.267       .  A
O184        C194   1.275       .  A
O185        C193   1.273       .  A
O186        C195   1.275       .  A
O187        C196   1.267       .  A
O188        C195   1.274       .  A
O189        C196   1.271       .  A
O190        C197   1.276       .  A
O191        C197   1.275       .  A
C192       C1438   1.470       .  S
C193       C1422   1.472       .  S
C194       C1633   1.490       .  S
C195       C1681   1.479       .  S
C196       C1454   1.461       .  S
C197       C1742   1.487       .  S
Zn198       O202   1.958       .  S
Zn198       O203   2.038       .  S
Zn198       O207   2.017       .  S
Zn198       O214   1.999       .  S
Zn199       O202   1.918       .  S
Zn199       O204   1.974       .  S
Zn199       O206   1.987       .  S
Zn199       O210   1.975       .  S
Zn200       O202   1.958       .  S
Zn200       O205   2.016       .  S
Zn200       O208   2.022       .  S
Zn200       O211   2.016       .  S
Zn201       O202   1.967       .  S
Zn201       O209   2.024       .  S
Zn201       O212   2.040       .  S
Zn201       O213   2.030       .  S
O203        C215   1.272       .  A
O204        C216   1.268       .  A
O205        C217   1.275       .  A
O206        C215   1.269       .  A
O207        C217   1.274       .  A
O208        C216   1.271       .  A
O209        C218   1.275       .  A
O210        C219   1.269       .  A
O211        C218   1.275       .  A
O212        C219   1.273       .  A
O213        C220   1.277       .  A
O214        C220   1.273       .  A
C215       C1406   1.474       .  S
C216       C1390   1.461       .  S
C217       C1694   1.479       .  S
C218       C1518   1.482       .  S
C219       C1374   1.475       .  S
C220       C1665   1.478       .  S
C221       C1345   1.474       .  S
C221        N222   1.352       .  A
C221        N226   1.359       .  A
N222        C223   1.351   1_554  A
C223       C1358   1.484       .  S
C223        N224   1.362       .  A
N224        C225   1.363   1_556  A
C225       C2129   1.508       .  S
C225        N226   1.364       .  A
C227       C1310   1.471       .  S
C227        N228   1.356       .  A
C227        N232   1.356       .  A
N228        C229   1.357       .  A
C229       C2049   1.502       .  S
C229        N230   1.361   1_556  A
N230        C231   1.363       .  A
C231       C1326   1.493       .  S
C231        N232   1.357   1_554  A
C233       C1294   1.473       .  S
C233        N234   1.353   1_565  A
C233        N238   1.359       .  A
N234        C235   1.355       .  A
C235       C1278   1.478       .  S
C235        N236   1.362       .  A
N236        C237   1.363       .  A
C237       C2033   1.507       .  S
C237        N238   1.361   1_545  A
C239       C1265   1.492       .  S
C239        N240   1.360   1_545  A
C239        N244   1.358       .  A
N240        C241   1.362   1_556  A
C241       C1246   1.492       .  S
C241        N242   1.360       .  A
N242        C243   1.355   1_554  A
C243       C1825   1.480       .  S
C243        N244   1.354   1_565  A
C245       C1230   1.484       .  S
C245        N246   1.359       .  A
C245        N250   1.358   1_565  A
N246        C247   1.359   1_565  A
C247       C1758   1.481       .  S
C247        N248   1.358   1_556  A
N248        C249   1.358       .  A
C249       C1217   1.480       .  S
C249        N250   1.355   1_554  A
Zn251       O255   1.965       .  S
Zn251       O256   2.016       .  S
Zn251       O260   2.028       .  S
Zn251       O267   2.012       .  S
Zn252       O255   1.962       .  S
Zn252       O257   2.035       .  S
Zn252       O259   2.008       .  S
Zn252       O263   2.015       .  S
Zn253       O255   1.922       .  S
Zn253       O258   1.973       .  S
Zn253       O261   1.985       .  S
Zn253       O264   1.973       .  S
Zn254       O255   1.964       .  S
Zn254       O262   2.034       .  S
Zn254       O265   2.009       .  S
Zn254       O266   2.014       .  S
O256        C268   1.275       .  A
O257        C269   1.272       .  A
O258        C270   1.270       .  A
O259        C268   1.273       .  A
O260        C270   1.272       .  A
O261        C269   1.269       .  A
O262        C271   1.271       .  A
O263        C272   1.274       .  A
O264        C271   1.267       .  A
O265        C272   1.274       .  A
O266        C273   1.275       .  A
O267        C273   1.273       .  A
C268       C1313   1.480       .  S
C269       C1489   1.469       .  S
C270       C1182   1.471       .  S
C271       C1166   1.467       .  S
C272       C1233   1.472       .  S
C273       C1198   1.490       .  S
C274       C1150   1.482       .  S
C274        N275   1.353       .  A
C274        N279   1.365       .  A
N275        C276   1.352   1_545  A
C276       C1201   1.467       .  S
C276        N277   1.357       .  A
N277        C278   1.360       .  A
C278       C1985   1.501       .  S
C278        N279   1.365   1_565  A
Zn280       O284   1.936       .  S
Zn280       O285   1.973       .  S
Zn280       O289   1.991       .  S
Zn280       O296   2.010       .  S
Zn281       O284   1.984       .  S
Zn281       O286   2.074       .  S
Zn281       O288   2.075       .  S
Zn281       O292   2.066       .  S
Zn282       O284   1.941       .  S
Zn282       O287   2.002       .  S
Zn282       O290   1.962       .  S
Zn282       O293   1.998       .  S
Zn283       O284   1.942       .  S
Zn283       O291   2.007       .  S
Zn283       O294   1.965       .  S
Zn283       O295   2.001       .  S
O285        C297   1.269       .  A
O286        C298   1.279       .  A
O287        C299   1.268       .  A
O288        C297   1.282       .  A
O289        C299   1.271       .  A
O290        C298   1.270       .  A
O291        C300   1.271       .  A
O292        C301   1.281       .  A
O293        C300   1.268       .  A
O294        C301   1.268       .  A
O295        C302   1.271       .  A
O296        C302   1.270       .  A
C297       C1361   1.484       .  S
C298       C1262   1.490       .  S
C299       C1569   1.489       .  S
C300       C1118   1.486       .  S
C301       C1153   1.481       .  S
C302       C1134   1.493       .  S
Zn303       O307   1.975       .  S
Zn303       O308   2.056       .  S
Zn303       O312   2.062       .  S
Zn303       O319   2.062       .  S
Zn304       O307   1.940       .  S
Zn304       O309   2.000       .  S
Zn304       O311   1.972       .  S
Zn304       O315   2.008       .  S
Zn305       O307   1.946       .  S
Zn305       O310   1.974       .  S
Zn305       O313   2.001       .  S
Zn305       O316   2.016       .  S
Zn306       O307   1.934       .  S
Zn306       O314   1.980       .  S
Zn306       O317   1.996       .  S
Zn306       O318   1.961       .  S
O308        C320   1.278       .  A
O309        C321   1.269       .  A
O310        C322   1.269       .  A
O311        C320   1.271       .  A
O312        C322   1.280       .  A
O313        C321   1.271       .  A
O314        C323   1.269       .  A
O315        C324   1.270       .  A
O316        C323   1.271       .  A
O317        C324   1.269       .  A
O318        C325   1.267       .  A
O319        C325   1.278       .  A
C320       C1249   1.493       .  S
C321       C1393   1.485       .  S
C322       C1329   1.490       .  S
C323       C1105   1.480       .  S
C324       C1086   1.478       .  S
C325       C1297   1.474       .  S
Zn326       O330   1.924       .  S
Zn326       O331   1.986       .  S
Zn326       O335   1.983       .  S
Zn326       O342   1.982       .  S
Zn327       O330   1.959       .  S
Zn327       O332   2.013       .  S
Zn327       O334   2.022       .  S
Zn327       O338   2.003       .  S
Zn328       O330   1.956       .  S
Zn328       O333   2.021       .  S
Zn328       O336   2.014       .  S
Zn328       O339   2.016       .  S
Zn329       O330   1.958       .  S
Zn329       O337   2.012       .  S
Zn329       O340   2.012       .  S
Zn329       O341   2.023       .  S
O331        C343   1.270       .  A
O332        C344   1.274       .  A
O333        C345   1.270       .  A
O334        C343   1.271       .  A
O335        C345   1.269       .  A
O336        C344   1.274       .  A
O337        C346   1.274       .  A
O338        C347   1.272       .  A
O339        C346   1.274       .  A
O340        C347   1.275       .  A
O341        C348   1.271       .  A
O342        C348   1.269       .  A
C343       C1441   1.472       .  S
C344       C1214   1.477       .  S
C345       C1054   1.463       .  S
C346       C1281   1.478       .  S
C347       C1342   1.480       .  S
C348       C1070   1.468       .  S
C349       C1038   1.484       .  S
C349        N350   1.354       .  A
C349        N354   1.360       .  A
N350        C351   1.355       .  A
C351       C1025   1.479       .  S
C351        N352   1.360       .  A
N352        C353   1.360       .  A
C353       C2097   1.505       .  S
C353        N354   1.361       .  A
C355       C1006   1.487       .  S
C355        N356   1.359       .  A
C355        N360   1.359       .  A
N356        C357   1.357       .  A
C357       C1873   1.481       .  S
C357        N358   1.357       .  A
N358        C359   1.360       .  A
C359        C990   1.482       .  S
C359        N360   1.358       .  A
Zn361       O365   1.950       .  S
Zn361       O366   2.017       .  S
Zn361       O370   1.991       .  S
Zn361       O377   2.007       .  S
Zn362       O365   1.941       .  S
Zn362       O367   1.974       .  S
Zn362       O369   1.996       .  S
Zn362       O373   2.000       .  S
Zn363       O365   1.967       .  S
Zn363       O368   2.042       .  S
Zn363       O371   2.044       .  S
Zn363       O374   2.047       .  S
Zn364       O365   1.940       .  S
Zn364       O372   1.972       .  S
Zn364       O375   2.000       .  S
Zn364       O376   1.990       .  S
O366        C378   1.273       .  A
O367        C379   1.270       .  A
O368        C380   1.277       .  A
O369        C378   1.269       .  A
O370        C380   1.273       .  A
O371        C379   1.277       .  A
O372        C381   1.268       .  A
O373        C382   1.269       .  A
O374        C381   1.277       .  A
O375        C382   1.271       .  A
O376        C383   1.270       .  A
O377        C383   1.270       .  A
C378        C958   1.488       .  S
C379        C974   1.476       .  S
C380       C1009   1.487       .  S
C381       C1041   1.480       .  S
C382       C1073   1.482       .  S
C383       C1457   1.486       .  S
C384        C945   1.472       .  S
C384        N385   1.358       .  A
C384        N389   1.353       .  A
N385        C386   1.360       .  A
C386       C2001   1.497       .  S
C386        N387   1.360       .  A
N387        C388   1.359       .  A
C388        C977   1.474       .  S
C388        N389   1.354       .  A
C390        C929   1.483       .  S
C390        N391   1.354       .  A
C390        N395   1.360       .  A
N391        C392   1.356       .  A
C392        C910   1.486       .  S
C392        N393   1.363       .  A
N393        C394   1.365       .  A
C394       C1953   1.499       .  S
C394        N395   1.360       .  A
Zn396       O400   1.925       .  S
Zn396       O401   1.976       .  S
Zn396       O405   1.978       .  S
Zn396       O412   1.971       .  S
Zn397       O400   1.966       .  S
Zn397       O402   2.008       .  S
Zn397       O404   2.044       .  S
Zn397       O408   2.023       .  S
Zn398       O400   1.965       .  S
Zn398       O403   2.036       .  S
Zn398       O406   2.000       .  S
Zn398       O409   2.006       .  S
Zn399       O400   1.964       .  S
Zn399       O407   2.017       .  S
Zn399       O410   2.023       .  S
Zn399       O411   2.023       .  S
O401        C413   1.267       .  A
O402        C414   1.275       .  A
O403        C415   1.272       .  A
O404        C413   1.272       .  A
O405        C415   1.268       .  A
O406        C414   1.273       .  A
O407        C416   1.274       .  A
O408        C417   1.275       .  A
O409        C416   1.272       .  A
O410        C417   1.275       .  A
O411        C418   1.272       .  A
O412        C418   1.268       .  A
C413        C878   1.470       .  S
C414        C894   1.472       .  S
C415       C1409   1.470       .  S
C416       C1022   1.478       .  S
C417        C926   1.484       .  S
C418       C1102   1.463       .  S
C419        C862   1.488       .  S
C419        N420   1.363       .  A
C419        N424   1.353       .  A
N420        C421   1.361       .  A
C421       C1905   1.480       .  S
C421        N422   1.357       .  A
N422        C423   1.355       .  A
C423        C897   1.470       .  S
C423        N424   1.352       .  A
C425        C830   1.484       .  S
C425        N426   1.361       .  A
C425        N430   1.357       .  A
N426        C427   1.361       .  A
C427       C2078   1.505       .  S
C427        N428   1.362       .  A
N428        C429   1.359       .  A
C429        C846   1.476       .  S
C429        N430   1.357       .  A
Zn431       O435   1.926       .  S
Zn431       O436   1.978       .  S
Zn431       O440   1.984       .  S
Zn431       O447   1.975       .  S
Zn432       O435   1.959       .  S
Zn432       O437   2.012       .  S
Zn432       O439   2.012       .  S
Zn432       O443   2.013       .  S
Zn433       O435   1.956       .  S
Zn433       O438   2.029       .  S
Zn433       O441   2.015       .  S
Zn433       O444   2.008       .  S
Zn434       O435   1.958       .  S
Zn434       O442   2.004       .  S
Zn434       O445   2.001       .  S
Zn434       O446   2.025       .  S
O436        C448   1.269       .  A
O437        C449   1.274       .  A
O438        C450   1.272       .  A
O439        C448   1.270       .  A
O440        C450   1.268       .  A
O441        C449   1.273       .  A
O442        C451   1.273       .  A
O443        C452   1.273       .  A
O444        C451   1.275       .  A
O445        C452   1.272       .  A
O446        C453   1.270       .  A
O447        C453   1.268       .  A
C448       C1582   1.460       .  S
C449        C849   1.486       .  S
C450       C1137   1.465       .  S
C451        C942   1.480       .  S
C452        C865   1.467       .  S
C453        C814   1.466       .  S
Zn454       O458   1.974       .  S
Zn454       O459   2.036       .  S
Zn454       O463   2.038       .  S
Zn454       O470   2.043       .  S
Zn455       O458   1.965       .  S
Zn455       O460   2.035       .  S
Zn455       O462   2.020       .  S
Zn455       O466   2.028       .  S
Zn456       O458   1.924       .  S
Zn456       O461   1.957       .  S
Zn456       O464   1.983       .  S
Zn456       O467   1.980       .  S
Zn457       O458   1.959       .  S
Zn457       O465   2.039       .  S
Zn457       O468   2.006       .  S
Zn457       O469   2.013       .  S
O459        C471   1.276       .  A
O460        C472   1.272       .  A
O461        C473   1.266       .  A
O462        C471   1.275       .  A
O463        C473   1.273       .  A
O464        C472   1.268       .  A
O465        C474   1.272       .  A
O466        C475   1.277       .  A
O467        C474   1.268       .  A
O468        C475   1.274       .  A
O469        C476   1.274       .  A
O470        C476   1.278       .  A
C471        C913   1.487       .  S
C472        C801   1.469       .  S
C473       C1185   1.469       .  S
C474       C1505   1.473       .  S
C475        C993   1.477       .  S
C476        C833   1.487       .  S
C477        C766   1.469       .  S
C477        N478   1.354       .  A
C477        N482   1.359       .  A
N478        C479   1.354   1_545  A
C479        C785   1.480       .  S
C479        N480   1.360       .  A
N480        C481   1.361   1_565  A
C481       C2017   1.496       .  S
C481        N482   1.359       .  A
C483        C734   1.476       .  S
C483        N484   1.359       .  A
C483        N488   1.354       .  A
N484        C485   1.358       .  A
C485       C1966   1.500       .  S
C485        N486   1.362   1_565  A
N486        C487   1.359       .  A
C487        C750   1.479       .  S
C487        N488   1.355   1_545  A
C489        C702   1.490       .  S
C489        N490   1.357   1_455  A
C489        N494   1.360       .  A
N490        C491   1.356       .  A
C491        C718   1.479       .  S
C491        N492   1.361       .  A
N492        C493   1.360       .  A
C493       C1921   1.480       .  S
C493        N494   1.360   1_655  A
C495        C686   1.484       .  S
C495        N496   1.362       .  A
C495        N500   1.357   1_565  A
N496        C497   1.362   1_565  A
C497       C1841   1.492       .  S
C497        N498   1.360   1_455  A
N498        C499   1.359       .  A
C499        C670   1.482       .  S
C499        N500   1.356   1_655  A
C501        C657   1.479       .  S
C501        N502   1.355   1_655  A
C501        N506   1.359       .  A
N502        C503   1.355       .  A
C503        C638   1.481       .  S
C503        N504   1.361       .  A
N504        C505   1.361       .  A
C505       C1857   1.483       .  S
C505        N506   1.360   1_455  A
Zn507       O511   1.954       .  S
Zn507       O512   2.022       .  S
Zn507       O516   2.001       .  S
Zn507       O523   2.014       .  S
Zn508       O511   1.924       .  S
Zn508       O513   1.990       .  S
Zn508       O515   1.979       .  S
Zn508       O519   1.977       .  S
Zn509       O511   1.961       .  S
Zn509       O514   2.023       .  S
Zn509       O517   2.040       .  S
Zn509       O520   2.017       .  S
Zn510       O511   1.967       .  S
Zn510       O518   2.028       .  S
Zn510       O521   2.037       .  S
Zn510       O522   2.038       .  S
O512        C524   1.271       .  A
O513        C525   1.269       .  A
O514        C526   1.275       .  A
O515        C524   1.268       .  A
O516        C526   1.272       .  A
O517        C525   1.273       .  A
O518        C527   1.276       .  A
O519        C528   1.269       .  A
O520        C527   1.276       .  A
O521        C528   1.273       .  A
O522        C529   1.277       .  A
O523        C529   1.273       .  A
C524       C1089   1.469       .  S
C525        C881   1.473       .  S
C526        C782   1.479       .  S
C527        C641   1.482       .  S
C528       C1377   1.471       .  S
C529        C689   1.487       .  S
Zn530       O534   1.930       .  S
Zn530       O535   1.983       .  S
Zn530       O539   1.973       .  S
Zn530       O546   1.976       .  S
Zn531       O534   1.965       .  S
Zn531       O536   2.022       .  S
Zn531       O538   2.035       .  S
Zn531       O542   2.028       .  S
Zn532       O534   1.963       .  S
Zn532       O537   2.031       .  S
Zn532       O540   2.009       .  S
Zn532       O543   2.016       .  S
Zn533       O534   1.964       .  S
Zn533       O541   2.019       .  S
Zn533       O544   2.020       .  S
Zn533       O545   2.022       .  S
O535        C547   1.269       .  A
O536        C548   1.276       .  A
O537        C549   1.271       .  A
O538        C547   1.272       .  A
O539        C549   1.267       .  A
O540        C548   1.273       .  A
O541        C550   1.274       .  A
O542        C551   1.275       .  A
O543        C550   1.275       .  A
O544        C551   1.276       .  A
O545        C552   1.270       .  A
O546        C552   1.268       .  A
C547       C1425   1.470       .  S
C548        C721   1.482       .  S
C549        C961   1.466       .  S
C550        C753   1.485       .  S
C551        C673   1.485       .  S
C552       C1057   1.461       .  S
C553        C606   1.480       .  S
C553        N554   1.361       .  A
C553        N558   1.356       .  A
N554        C555   1.360       .  A
C555       C1790   1.487       .  S
C555        N556   1.357   1_445  A
N556        C557   1.358       .  A
C557        C622   1.479       .  S
C557        N558   1.355   1_665  A
Zn559       O563   1.930       .  S
Zn559       O564   1.977       .  S
Zn559       O568   1.980       .  S
Zn559       O575   1.988       .  S
Zn560       O563   1.965       .  S
Zn560       O565   2.012       .  S
Zn560       O567   2.025       .  S
Zn560       O571   2.020       .  S
Zn561       O563   1.966       .  S
Zn561       O566   2.037       .  S
Zn561       O569   2.022       .  S
Zn561       O572   2.025       .  S
Zn562       O563   1.955       .  S
Zn562       O570   1.991       .  S
Zn562       O573   2.005       .  S
Zn562       O574   2.025       .  S
O564        C576   1.268       .  A
O565        C577   1.273       .  A
O566        C578   1.273       .  A
O567        C576   1.272       .  A
O568        C578   1.268       .  A
O569        C577   1.276       .  A
O570        C579   1.271       .  A
O571        C580   1.274       .  A
O572        C579   1.275       .  A
O573        C580   1.272       .  A
O574        C581   1.270       .  A
O575        C581   1.269       .  A
C576       C1473   1.464       .  S
C577        C654   1.483       .  S
C578        C798   1.467       .  S
C579        C737   1.477       .  S
C580        C625   1.474       .  S
C581       C1169   1.466       .  S
Zn582       O586   1.959       .  S
Zn582       O587   2.014       .  S
Zn582       O591   2.028       .  S
Zn582       O598   2.039       .  S
Zn583       O586   1.958       .  S
Zn583       O588   2.008       .  S
Zn583       O590   2.011       .  S
Zn583       O594   2.028       .  S
Zn584       O586   1.957       .  S
Zn584       O589   2.014       .  S
Zn584       O592   2.007       .  S
Zn584       O595   2.026       .  S
Zn585       O586   1.921       .  S
Zn585       O593   1.979       .  S
Zn585       O596   1.985       .  S
Zn585       O597   1.977       .  S
O587        C599   1.275       .  A
O588        C600   1.273       .  A
O589        C601   1.274       .  A
O590        C599   1.273       .  A
O591        C601   1.275       .  A
O592        C600   1.275       .  A
O593        C602   1.269       .  A
O594        C603   1.272       .  A
O595        C602   1.271       .  A
O596        C603   1.269       .  A
O597        C604   1.269       .  A
O598        C604   1.274       .  A
C599        C609   1.476       .  S
C600        C769   1.482       .  S
C601        C705   1.478       .  S
C602        C817   1.466       .  S
C603       C1121   1.469       .  S
C604       C1553   1.467       .  S
C605        C606   1.404       .  A
C605        C610   1.403       .  A
C605        H612   1.084       .  S
C606        C607   1.417       .  A
C607        C608   1.402       .  A
C607        C614   1.508       .  S
C608        C609   1.401       .  A
C608        H613   1.084       .  S
C609        C610   1.415       .  A
C610        C611   1.508       .  S
C611        H615   1.111       .  S
C611        H616   1.111       .  S
C611        H617   1.110       .  S
C614        H618   1.110   1_455  S
C614        H619   1.109   1_455  S
C614        H620   1.111   1_455  S
C621        C622   1.402       .  A
C621        C626   1.401       .  A
C621        H628   1.084       .  S
C622        C623   1.417       .  A
C623        C624   1.405       .  A
C623        C630   1.508   1_655  S
C624        C625   1.402       .  A
C624        H629   1.084       .  S
C625        C626   1.414       .  A
C626        C627   1.509       .  S
C627        H631   1.111       .  S
C627        H632   1.110       .  S
C627        H633   1.110       .  S
C630        H634   1.110       .  S
C630        H635   1.109       .  S
C630        H636   1.111       .  S
C637        C638   1.403       .  A
C637        C642   1.406       .  A
C637        H644   1.084       .  S
C638        C639   1.416       .  A
C639        C640   1.403       .  A
C639        C646   1.508       .  S
C640        C641   1.403       .  A
C640        H645   1.084       .  S
C641        C642   1.417       .  A
C642        C643   1.508       .  S
C643        H647   1.111       .  S
C643        H648   1.110       .  S
C643        H649   1.110       .  S
C646        H650   1.110       .  S
C646        H651   1.109       .  S
C646        H652   1.111       .  S
C653        C654   1.403       .  A
C653        C658   1.403       .  A
C653        H660   1.084       .  S
C654        C655   1.419       .  A
C655        C656   1.405       .  A
C655        C662   1.509       .  S
C656        C657   1.402       .  A
C656        H661   1.084       .  S
C657        C658   1.415       .  A
C658        C659   1.508       .  S
C659        H663   1.111       .  S
C659        H664   1.110       .  S
C659        H665   1.109       .  S
C662        H666   1.110       .  S
C662        H667   1.110       .  S
C662        H668   1.111       .  S
C669        C670   1.405       .  A
C669        C674   1.407       .  A
C669        H676   1.084       .  S
C670        C671   1.413       .  A
C671        C672   1.404       .  A
C671        C678   1.508       .  S
C672        C673   1.406       .  A
C672        H677   1.084       .  S
C673        C674   1.416       .  A
C674        C675   1.507       .  S
C675        H679   1.111       .  S
C675        H680   1.110       .  S
C675        H681   1.109       .  S
C678        H682   1.110       .  S
C678        H683   1.109       .  S
C678        H684   1.111       .  S
C685        C686   1.402       .  A
C685        C690   1.406       .  A
C685        H692   1.084       .  S
C686        C687   1.417       .  A
C687        C688   1.406       .  A
C687        C694   1.508   1_455  S
C688        C689   1.404       .  A
C688        H693   1.084       .  S
C689        C690   1.420       .  A
C690        C691   1.509       .  S
C691        H695   1.111       .  S
C691        H696   1.110       .  S
C691        H697   1.110       .  S
C694        H698   1.110       .  S
C694        H699   1.109       .  S
C694        H700   1.111       .  S
C701        C702   1.410       .  A
C701        C706   1.405       .  A
C701        H708   1.084       .  S
C702        C703   1.419       .  A
C703        C704   1.404       .  A
C703        C710   1.508       .  S
C704        C705   1.402       .  A
C704        H709   1.084       .  S
C705        C706   1.411       .  A
C706        C707   1.507       .  S
C707        H711   1.111       .  S
C707        H712   1.109       .  S
C707        H713   1.111       .  S
C710        H714   1.109       .  S
C710        H715   1.110       .  S
C710        H716   1.111       .  S
C717        C718   1.401       .  A
C717        C722   1.405       .  A
C717        H724   1.084       .  S
C718        C719   1.416       .  A
C719        C720   1.403       .  A
C719        C726   1.508   1_655  S
C720        C721   1.403       .  A
C720        H725   1.084       .  S
C721        C722   1.419       .  A
C722        C723   1.509       .  S
C723        H727   1.111       .  S
C723        H728   1.110       .  S
C723        H729   1.110       .  S
C726        H730   1.109       .  S
C726        H731   1.110       .  S
C726        H732   1.111       .  S
C733        C734   1.400       .  A
C733        C738   1.399       .  A
C733        H740   1.084       .  S
C734        C735   1.416       .  A
C735        C736   1.405       .  A
C735        C742   1.507       .  S
C736        C737   1.403       .  A
C736        H741   1.084       .  S
C737        C738   1.417       .  A
C738        C739   1.510       .  S
C739        H743   1.111       .  S
C739        H744   1.109       .  S
C739        H745   1.110       .  S
C742        H746   1.109       .  S
C742        H747   1.110       .  S
C742        H748   1.111       .  S
C749        C750   1.404       .  A
C749        C754   1.405       .  A
C749        H756   1.084   1_545  S
C750        C751   1.413       .  A
C751        C752   1.402       .  A
C751        C758   1.508       .  S
C752        C753   1.406       .  A
C752        H757   1.084       .  S
C753        C754   1.417       .  A
C754        C755   1.507       .  S
C755        H759   1.111       .  S
C755        H760   1.110       .  S
C755        H761   1.109       .  S
C758        H762   1.110       .  S
C758        H763   1.108       .  S
C758        H764   1.111       .  S
C765        C766   1.401       .  A
C765        C770   1.404       .  A
C765        H772   1.084       .  S
C766        C767   1.408       .  A
C767        C768   1.399       .  A
C767        C774   1.505       .  S
C768        C769   1.406       .  A
C768        H773   1.084       .  S
C769        C770   1.419       .  A
C770        C771   1.508       .  S
C771        H775   1.111       .  S
C771        H776   1.110       .  S
C771        H777   1.109       .  S
C774        H778   1.110       .  S
C774        H779   1.105       .  S
C774        H780   1.111       .  S
C781        C782   1.403       .  A
C781        C786   1.406       .  A
C781        H788   1.084       .  S
C782        C783   1.417       .  A
C783        C784   1.400       .  A
C783        C790   1.510       .  S
C784        C785   1.401       .  A
C784        H789   1.084       .  S
C785        C786   1.418       .  A
C786        C787   1.508       .  S
C787        H791   1.111       .  S
C787        H792   1.109       .  S
C787        H793   1.110       .  S
C790        H794   1.109       .  S
C790        H795   1.111       .  S
C790        H796   1.111       .  S
C797        C798   1.401       .  A
C797        C802   1.406       .  A
C797        H804   1.084       .  S
C798        C799   1.411       .  A
C799        C800   1.401       .  A
C799        C806   1.508       .  S
C800        C801   1.401       .  A
C800        H805   1.084       .  S
C801        C802   1.413       .  A
C802        C803   1.507       .  S
C803        H807   1.111       .  S
C803        H808   1.111       .  S
C803        H809   1.110       .  S
C806        H810   1.110       .  S
C806        H811   1.110       .  S
C806        H812   1.111       .  S
C813        C814   1.400       .  A
C813        C818   1.397       .  A
C813        H820   1.085       .  S
C814        C815   1.412       .  A
C815        C816   1.406       .  A
C815        C822   1.506       .  S
C816        C817   1.402       .  A
C816        H821   1.084       .  S
C817        C818   1.412       .  A
C818        C819   1.509       .  S
C819        H823   1.111       .  S
C819        H824   1.110       .  S
C819        H825   1.109       .  S
C822        H826   1.110       .  S
C822        H827   1.111       .  S
C822        H828   1.111       .  S
C829        C830   1.401       .  A
C829        C834   1.404       .  A
C829        H836   1.084       .  S
C830        C831   1.416       .  A
C831        C832   1.407       .  A
C831        C838   1.506       .  S
C832        C833   1.404       .  A
C832        H837   1.084       .  S
C833        C834   1.420       .  A
C834        C835   1.509       .  S
C835        H839   1.111       .  S
C835        H840   1.111       .  S
C835        H841   1.109       .  S
C838        H842   1.110       .  S
C838        H843   1.109       .  S
C838        H844   1.111       .  S
C845        C846   1.401       .  A
C845        C850   1.405       .  A
C845        H852   1.084       .  S
C846        C847   1.414       .  A
C847        C848   1.402       .  A
C847        C854   1.507       .  S
C848        C849   1.406       .  A
C848        H853   1.084       .  S
C849        C850   1.420       .  A
C850        C851   1.509       .  S
C851        H855   1.111       .  S
C851        H856   1.110       .  S
C851        H857   1.111       .  S
C854        H858   1.110       .  S
C854        H859   1.107       .  S
C854        H860   1.111       .  S
C861        C862   1.406       .  A
C861        C866   1.400       .  A
C861        H868   1.084       .  S
C862        C863   1.426       .  A
C863        C864   1.404       .  A
C863        C870   1.509       .  S
C864        C865   1.396       .  A
C864        H869   1.084       .  S
C865        C866   1.410       .  A
C866        C867   1.509       .  S
C867        H871   1.111       .  S
C867        H872   1.111       .  S
C867        H873   1.109       .  S
C870        H874   1.110       .  S
C870        H875   1.110       .  S
C870        H876   1.111       .  S
C877        C878   1.402       .  A
C877        C882   1.407       .  A
C877        H884   1.084       .  S
C878        C879   1.412       .  A
C879        C880   1.401       .  A
C879        C886   1.508       .  S
C880        C881   1.401       .  A
C880        H885   1.084       .  S
C881        C882   1.414       .  A
C882        C883   1.506       .  S
C883        H887   1.111       .  S
C883        H888   1.110       .  S
C883        H889   1.111       .  S
C886        H890   1.110       .  S
C886        H891   1.110       .  S
C886        H892   1.111       .  S
C893        C894   1.403       .  A
C893        C898   1.399       .  A
C893        H900   1.084       .  S
C894        C895   1.414       .  A
C895        C896   1.402       .  A
C895        C902   1.508       .  S
C896        C897   1.403       .  A
C896        H901   1.084       .  S
C897        C898   1.412       .  A
C898        C899   1.508       .  S
C899        H903   1.111       .  S
C899        H904   1.110       .  S
C899        H905   1.109       .  S
C902        H906   1.110       .  S
C902        H907   1.109       .  S
C902        H908   1.111       .  S
C909        C910   1.406       .  A
C909        C914   1.405       .  A
C909        H916   1.084       .  S
C910        C911   1.414       .  A
C911        C912   1.408       .  A
C911        C918   1.507       .  S
C912        C913   1.408       .  A
C912        H917   1.084       .  S
C913        C914   1.413       .  A
C914        C915   1.507       .  S
C915        H919   1.111       .  S
C915        H920   1.109       .  S
C915        H921   1.110       .  S
C918        H922   1.109       .  S
C918        H923   1.110       .  S
C918        H924   1.111       .  S
C925        C926   1.404       .  A
C925        C930   1.406       .  A
C925        H932   1.084       .  S
C926        C927   1.417       .  A
C927        C928   1.404       .  A
C927        C934   1.508       .  S
C928        C929   1.402       .  A
C928        H933   1.084       .  S
C929        C930   1.417       .  A
C930        C931   1.508       .  S
C931        H935   1.111       .  S
C931        H936   1.109       .  S
C931        H937   1.110       .  S
C934        H938   1.110       .  S
C934        H939   1.110       .  S
C934        H940   1.111       .  S
C941        C942   1.406       .  A
C941        C946   1.400       .  A
C941        H948   1.084       .  S
C942        C943   1.417       .  A
C943        C944   1.402       .  A
C943        C950   1.509       .  S
C944        C945   1.402       .  A
C944        H949   1.084       .  S
C945        C946   1.410       .  A
C946        C947   1.508       .  S
C947        H951   1.111       .  S
C947        H952   1.110       .  S
C947        H953   1.109       .  S
C950        H954   1.110       .  S
C950        H955   1.109       .  S
C950        H956   1.111       .  S
C957        C958   1.409       .  A
C957        C962   1.404       .  A
C957        H964   1.084       .  S
C958        C959   1.423       .  A
C959        C960   1.400       .  A
C959        C966   1.510       .  S
C960        C961   1.397       .  A
C960        H965   1.085       .  S
C961        C962   1.408       .  A
C962        C963   1.507       .  S
C963        H967   1.111       .  S
C963        H968   1.111       .  S
C963        H969   1.110       .  S
C966        H970   1.110       .  S
C966        H971   1.110       .  S
C966        H972   1.111       .  S
C973        C974   1.405       .  A
C973        C978   1.401       .  A
C973        H980   1.084       .  S
C974        C975   1.413       .  A
C975        C976   1.403       .  A
C975        C982   1.507       .  S
C976        C977   1.405       .  A
C976        H981   1.084       .  S
C977        C978   1.411       .  A
C978        C979   1.508       .  S
C979        H983   1.111       .  S
C979        H984   1.110       .  S
C979        H985   1.108       .  S
C982        H986   1.110       .  S
C982        H987   1.110       .  S
C982        H988   1.111       .  S
C989        C990   1.403       .  A
C989        C994   1.401       .  A
C989        H996   1.084       .  S
C990        C991   1.418       .  A
C991        C992   1.406       .  A
C991        C998   1.507       .  S
C992        C993   1.402       .  A
C992        H997   1.084       .  S
C993        C994   1.415       .  A
C994        C995   1.509       .  S
C995        H999   1.111       .  S
C995       H1000   1.109       .  S
C995       H1001   1.111       .  S
C998       H1002   1.109       .  S
C998       H1003   1.110       .  S
C998       H1004   1.111       .  S
C1005      C1006   1.407       .  A
C1005      C1010   1.406       .  A
C1005      H1012   1.083       .  S
C1006      C1007   1.417       .  A
C1007      C1008   1.402       .  A
C1007      C1014   1.509       .  S
C1008      C1009   1.406       .  A
C1008      H1013   1.084       .  S
C1009      C1010   1.416       .  A
C1010      C1011   1.508       .  S
C1011      H1015   1.111       .  S
C1011      H1016   1.110       .  S
C1011      H1017   1.111       .  S
C1014      H1018   1.110       .  S
C1014      H1019   1.110       .  S
C1014      H1020   1.111       .  S
C1021      C1022   1.402       .  A
C1021      C1026   1.403       .  A
C1021      H1028   1.084       .  S
C1022      C1023   1.416       .  A
C1023      C1024   1.403       .  A
C1023      C1030   1.509       .  S
C1024      C1025   1.402       .  A
C1024      H1029   1.084       .  S
C1025      C1026   1.417       .  A
C1026      C1027   1.508       .  S
C1027      H1031   1.111       .  S
C1027      H1032   1.110       .  S
C1027      H1033   1.108       .  S
C1030      H1034   1.110       .  S
C1030      H1035   1.110       .  S
C1030      H1036   1.111       .  S
C1037      C1038   1.402       .  A
C1037      C1042   1.400       .  A
C1037      H1044   1.084       .  S
C1038      C1039   1.420       .  A
C1039      C1040   1.406       .  A
C1039      C1046   1.508       .  S
C1040      C1041   1.402       .  A
C1040      H1045   1.084       .  S
C1041      C1042   1.418       .  A
C1042      C1043   1.510       .  S
C1043      H1047   1.111       .  S
C1043      H1048   1.109       .  S
C1043      H1049   1.110       .  S
C1046      H1050   1.110       .  S
C1046      H1051   1.109       .  S
C1046      H1052   1.111       .  S
C1053      C1054   1.401       .  A
C1053      C1058   1.402       .  A
C1053      H1060   1.084       .  S
C1054      C1055   1.410       .  A
C1055      C1056   1.400       .  A
C1055      C1062   1.507       .  S
C1056      C1057   1.401       .  A
C1056      H1061   1.085       .  S
C1057      C1058   1.409       .  A
C1058      C1059   1.506       .  S
C1059      H1063   1.111       .  S
C1059      H1064   1.110       .  S
C1059      H1065   1.111       .  S
C1062      H1066   1.110       .  S
C1062      H1067   1.110       .  S
C1062      H1068   1.111       .  S
C1069      C1070   1.400       .  A
C1069      C1074   1.405       .  A
C1069      H1076   1.084       .  S
C1070      C1071   1.410       .  A
C1071      C1072   1.398       .  A
C1071      C1078   1.509       .  S
C1072      C1073   1.406       .  A
C1072      H1077   1.084       .  S
C1073      C1074   1.420       .  A
C1074      C1075   1.508       .  S
C1075      H1079   1.111       .  S
C1075      H1080   1.110       .  S
C1075      H1081   1.109       .  S
C1078      H1082   1.110       .  S
C1078      H1083   1.109       .  S
C1078      H1084   1.111       .  S
C1085      C1086   1.405       .  A
C1085      C1090   1.399       .  A
C1085      H1092   1.084       .  S
C1086      C1087   1.416       .  A
C1087      C1088   1.404       .  A
C1087      C1094   1.507       .  S
C1088      C1089   1.401       .  A
C1088      H1093   1.084       .  S
C1089      C1090   1.412       .  A
C1090      C1091   1.510       .  S
C1091      H1095   1.111       .  S
C1091      H1096   1.109       .  S
C1091      H1097   1.111       .  S
C1094      H1098   1.109       .  S
C1094      H1099   1.110       .  S
C1094      H1100   1.111       .  S
C1101      C1102   1.401       .  A
C1101      C1106   1.406       .  A
C1101      H1108   1.084       .  S
C1102      C1103   1.408       .  A
C1103      C1104   1.394       .  A
C1103      C1110   1.510       .  S
C1104      C1105   1.406       .  A
C1104      H1109   1.084       .  S
C1105      C1106   1.418       .  A
C1106      C1107   1.507       .  S
C1107      H1111   1.111       .  S
C1107      H1112   1.110       .  S
C1107      H1113   1.109       .  S
C1110      H1114   1.110       .  S
C1110      H1115   1.109       .  S
C1110      H1116   1.111       .  S
C1117      C1118   1.409       .  A
C1117      C1122   1.404       .  A
C1117      H1124   1.084       .  S
C1118      C1119   1.422       .  A
C1119      C1120   1.401       .  A
C1119      C1126   1.510       .  S
C1120      C1121   1.398       .  A
C1120      H1125   1.085       .  S
C1121      C1122   1.409       .  A
C1122      C1123   1.507       .  S
C1123      H1127   1.111       .  S
C1123      H1128   1.111       .  S
C1123      H1129   1.110       .  S
C1126      H1130   1.110       .  S
C1126      H1131   1.110       .  S
C1126      H1132   1.111       .  S
C1133      C1134   1.410       .  A
C1133      C1138   1.400       .  A
C1133      H1140   1.083       .  S
C1134      C1135   1.424       .  A
C1135      C1136   1.405       .  A
C1135      C1142   1.508       .  S
C1136      C1137   1.398       .  A
C1136      H1141   1.085       .  S
C1137      C1138   1.406       .  A
C1138      C1139   1.508       .  S
C1139      H1143   1.111       .  S
C1139      H1144   1.110       .  S
C1139      H1145   1.111       .  S
C1142      H1146   1.110       .  S
C1142      H1147   1.110       .  S
C1142      H1148   1.111       .  S
C1149      C1150   1.400       .  A
C1149      C1154   1.401       .  A
C1149      H1156   1.084       .  S
C1150      C1151   1.420       .  A
C1151      C1152   1.406       .  A
C1151      C1158   1.508       .  S
C1152      C1153   1.401       .  A
C1152      H1157   1.084       .  S
C1153      C1154   1.420       .  A
C1154      C1155   1.510       .  S
C1155      H1159   1.111       .  S
C1155      H1160   1.109       .  S
C1155      H1161   1.110       .  S
C1158      H1162   1.110       .  S
C1158      H1163   1.109       .  S
C1158      H1164   1.111       .  S
C1165      C1166   1.403       .  A
C1165      C1170   1.407       .  A
C1165      H1172   1.084       .  S
C1166      C1167   1.412       .  A
C1167      C1168   1.397       .  A
C1167      C1174   1.509       .  S
C1168      C1169   1.399       .  A
C1168      H1173   1.085       .  S
C1169      C1170   1.412       .  A
C1170      C1171   1.506       .  S
C1171      H1175   1.111       .  S
C1171      H1176   1.110       .  S
C1171      H1177   1.110       .  S
C1174      H1178   1.109       .  S
C1174      H1179   1.110       .  S
C1174      H1180   1.111       .  S
C1181      C1182   1.400       .  A
C1181      C1186   1.394       .  A
C1181      H1188   1.085       .  S
C1182      C1183   1.412       .  A
C1183      C1184   1.407       .  A
C1183      C1190   1.505       .  S
C1184      C1185   1.404       .  A
C1184      H1189   1.084       .  S
C1185      C1186   1.414       .  A
C1186      C1187   1.512       .  S
C1187      H1191   1.111       .  S
C1187      H1192   1.110       .  S
C1187      H1193   1.108       .  S
C1190      H1194   1.110       .  S
C1190      H1195   1.110       .  S
C1190      H1196   1.111       .  S
C1197      C1198   1.408       .  A
C1197      C1202   1.400       .  A
C1197      H1204   1.084       .  S
C1198      C1199   1.423       .  A
C1199      C1200   1.404       .  A
C1199      C1206   1.509       .  S
C1200      C1201   1.398       .  A
C1200      H1205   1.085       .  S
C1201      C1202   1.410       .  A
C1202      C1203   1.508   1_565  S
C1203      H1207   1.110       .  S
C1203      H1208   1.110       .  S
C1203      H1209   1.108       .  S
C1206      H1210   1.110       .  S
C1206      H1211   1.110       .  S
C1206      H1212   1.111       .  S
C1213      C1214   1.402       .  A
C1213      C1218   1.405       .  A
C1213      H1220   1.084       .  S
C1214      C1215   1.415       .  A
C1215      C1216   1.401       .  A
C1215      C1222   1.509       .  S
C1216      C1217   1.403       .  A
C1216      H1221   1.084       .  S
C1217      C1218   1.417       .  A
C1218      C1219   1.508   1_554  S
C1219      H1223   1.111       .  S
C1219      H1224   1.109       .  S
C1219      H1225   1.110       .  S
C1222      H1226   1.109       .  S
C1222      H1227   1.111       .  S
C1222      H1228   1.111       .  S
C1229      C1230   1.408       .  A
C1229      C1234   1.403       .  A
C1229      H1236   1.084       .  S
C1230      C1231   1.417       .  A
C1231      C1232   1.403       .  A
C1231      C1238   1.508       .  S
C1232      C1233   1.402       .  A
C1232      H1237   1.085       .  S
C1233      C1234   1.409       .  A
C1234      C1235   1.507       .  S
C1235      H1239   1.111       .  S
C1235      H1240   1.110       .  S
C1235      H1241   1.110       .  S
C1238      H1242   1.109       .  S
C1238      H1243   1.110       .  S
C1238      H1244   1.111       .  S
C1245      C1246   1.409       .  A
C1245      C1250   1.407       .  A
C1245      H1252   1.083       .  S
C1246      C1247   1.419       .  A
C1247      C1248   1.400       .  A
C1247      C1254   1.511       .  S
C1248      C1249   1.408       .  A
C1248      H1253   1.084       .  S
C1249      C1250   1.416       .  A
C1250      C1251   1.507       .  S
C1251      H1255   1.111       .  S
C1251      H1256   1.110       .  S
C1251      H1257   1.110       .  S
C1254      H1258   1.109       .  S
C1254      H1259   1.110       .  S
C1254      H1260   1.111       .  S
C1261      C1262   1.406       .  A
C1261      C1266   1.398       .  A
C1261      H1268   1.084       .  S
C1262      C1263   1.414       .  A
C1263      C1264   1.411       .  A
C1263      C1270   1.506       .  S
C1264      C1265   1.412       .  A
C1264      H1269   1.084       .  S
C1265      C1266   1.418       .  A
C1266      C1267   1.511       .  S
C1267      H1271   1.111       .  S
C1267      H1272   1.110       .  S
C1267      H1273   1.110       .  S
C1270      H1274   1.110       .  S
C1270      H1275   1.110       .  S
C1270      H1276   1.111       .  S
C1277      C1278   1.402       .  A
C1277      C1282   1.403       .  A
C1277      H1284   1.084       .  S
C1278      C1279   1.416       .  A
C1279      C1280   1.403       .  A
C1279      C1286   1.507       .  S
C1280      C1281   1.402       .  A
C1280      H1285   1.084       .  S
C1281      C1282   1.416       .  A
C1282      C1283   1.508       .  S
C1283      H1287   1.111       .  S
C1283      H1288   1.110       .  S
C1283      H1289   1.110       .  S
C1286      H1290   1.110       .  S
C1286      H1291   1.109       .  S
C1286      H1292   1.111       .  S
C1293      C1294   1.400       .  A
C1293      C1298   1.401       .  A
C1293      H1300   1.085       .  S
C1294      C1295   1.416       .  A
C1295      C1296   1.406       .  A
C1295      C1302   1.507   1_565  S
C1296      C1297   1.402       .  A
C1296      H1301   1.085       .  S
C1297      C1298   1.416       .  A
C1298      C1299   1.509       .  S
C1299      H1303   1.111       .  S
C1299      H1304   1.110       .  S
C1299      H1305   1.109       .  S
C1302      H1306   1.110       .  S
C1302      H1307   1.107       .  S
C1302      H1308   1.111       .  S
C1309      C1310   1.400       .  A
C1309      C1314   1.402       .  A
C1309      H1316   1.085       .  S
C1310      C1311   1.414       .  A
C1311      C1312   1.402       .  A
C1311      C1318   1.507       .  S
C1312      C1313   1.404       .  A
C1312      H1317   1.085       .  S
C1313      C1314   1.418       .  A
C1314      C1315   1.509       .  S
C1315      H1319   1.111       .  S
C1315      H1320   1.109       .  S
C1315      H1321   1.110       .  S
C1318      H1322   1.110       .  S
C1318      H1323   1.107       .  S
C1318      H1324   1.111       .  S
C1325      C1326   1.403       .  A
C1325      C1330   1.400       .  A
C1325      H1332   1.084       .  S
C1326      C1327   1.422       .  A
C1327      C1328   1.408       .  A
C1327      C1334   1.507       .  S
C1328      C1329   1.404       .  A
C1328      H1333   1.084       .  S
C1329      C1330   1.422       .  A
C1330      C1331   1.512       .  S
C1331      H1335   1.111       .  S
C1331      H1336   1.109       .  S
C1331      H1337   1.110       .  S
C1334      H1338   1.109   1_554  S
C1334      H1339   1.110       .  S
C1334      H1340   1.111       .  S
C1341      C1342   1.403       .  A
C1341      C1346   1.401       .  A
C1341      H1348   1.084       .  S
C1342      C1343   1.419       .  A
C1343      C1344   1.404       .  A
C1343      C1350   1.509       .  S
C1344      C1345   1.401       .  A
C1344      H1349   1.084       .  S
C1345      C1346   1.414       .  A
C1346      C1347   1.509       .  S
C1347      H1351   1.111       .  S
C1347      H1352   1.109       .  S
C1347      H1353   1.110       .  S
C1350      H1354   1.110       .  S
C1350      H1355   1.110       .  S
C1350      H1356   1.111       .  S
C1357      C1358   1.400       .  A
C1357      C1362   1.403       .  A
C1357      H1364   1.084       .  S
C1358      C1359   1.419       .  A
C1359      C1360   1.407       .  A
C1359      C1366   1.508       .  S
C1360      C1361   1.402       .  A
C1360      H1365   1.084       .  S
C1361      C1362   1.420       .  A
C1362      C1363   1.510       .  S
C1363      H1367   1.111       .  S
C1363      H1368   1.110       .  S
C1363      H1369   1.109       .  S
C1366      H1370   1.109       .  S
C1366      H1371   1.110       .  S
C1366      H1372   1.111       .  S
C1373      C1374   1.402       .  A
C1373      C1378   1.397       .  A
C1373      H1380   1.085       .  S
C1374      C1375   1.413       .  A
C1375      C1376   1.408       .  A
C1375      C1382   1.505       .  S
C1376      C1377   1.404       .  A
C1376      H1381   1.084       .  S
C1377      C1378   1.412       .  A
C1378      C1379   1.510       .  S
C1379      H1383   1.111       .  S
C1379      H1384   1.109       .  S
C1379      H1385   1.110       .  S
C1382      H1386   1.110       .  S
C1382      H1387   1.110       .  S
C1382      H1388   1.111       .  S
C1389      C1390   1.398       .  A
C1389      C1394   1.404       .  A
C1389      H1396   1.085       .  S
C1390      C1391   1.406       .  A
C1391      C1392   1.398       .  A
C1391      C1398   1.508       .  S
C1392      C1393   1.408       .  A
C1392      H1397   1.084       .  S
C1393      C1394   1.422       .  A
C1394      C1395   1.509       .  S
C1395      H1399   1.111       .  S
C1395      H1400   1.110       .  S
C1395      H1401   1.109       .  S
C1398      H1402   1.110       .  S
C1398      H1403   1.110       .  S
C1398      H1404   1.111       .  S
C1405      C1406   1.405       .  A
C1405      C1410   1.408       .  A
C1405      H1412   1.084       .  S
C1406      C1407   1.413       .  A
C1407      C1408   1.399       .  A
C1407      C1414   1.509       .  S
C1408      C1409   1.400       .  A
C1408      H1413   1.085       .  S
C1409      C1410   1.411       .  A
C1410      C1411   1.506       .  S
C1411      H1415   1.111       .  S
C1411      H1416   1.110       .  S
C1411      H1417   1.110       .  S
C1414      H1418   1.110       .  S
C1414      H1419   1.109       .  S
C1414      H1420   1.111       .  S
C1421      C1422   1.402       .  A
C1421      C1426   1.399       .  A
C1421      H1428   1.085       .  S
C1422      C1423   1.413       .  A
C1423      C1424   1.407       .  A
C1423      C1430   1.506       .  S
C1424      C1425   1.403       .  A
C1424      H1429   1.084       .  S
C1425      C1426   1.411       .  A
C1426      C1427   1.509       .  S
C1427      H1431   1.111       .  S
C1427      H1432   1.110       .  S
C1427      H1433   1.109       .  S
C1430      H1434   1.110       .  S
C1430      H1435   1.111       .  S
C1430      H1436   1.111       .  S
C1437      C1438   1.403       .  A
C1437      C1442   1.407       .  A
C1437      H1444   1.084       .  S
C1438      C1439   1.413       .  A
C1439      C1440   1.396       .  A
C1439      C1446   1.510       .  S
C1440      C1441   1.400       .  A
C1440      H1445   1.085       .  S
C1441      C1442   1.414       .  A
C1442      C1443   1.506       .  S
C1443      H1447   1.111       .  S
C1443      H1448   1.110       .  S
C1443      H1449   1.110       .  S
C1446      H1450   1.109       .  S
C1446      H1451   1.110       .  S
C1446      H1452   1.111       .  S
C1453      C1454   1.399       .  A
C1453      C1458   1.404       .  A
C1453      H1460   1.085       .  S
C1454      C1455   1.406       .  A
C1455      C1456   1.398       .  A
C1455      C1462   1.508       .  S
C1456      C1457   1.409       .  A
C1456      H1461   1.084       .  S
C1457      C1458   1.421       .  A
C1458      C1459   1.508       .  S
C1459      H1463   1.111       .  S
C1459      H1464   1.109       .  S
C1459      H1465   1.110       .  S
C1462      H1466   1.110       .  S
C1462      H1467   1.110       .  S
C1462      H1468   1.111       .  S
C1469      C1470   1.402       .  A
C1469      C1474   1.404       .  A
C1469      H1476   1.084       .  S
C1470      C1471   1.410       .  A
C1471      C1472   1.398       .  A
C1471      C1478   1.508       .  S
C1472      C1473   1.401       .  A
C1472      H1477   1.085       .  S
C1473      C1474   1.410       .  A
C1474      C1475   1.506       .  S
C1475      H1479   1.111       .  S
C1475      H1480   1.111       .  S
C1475      H1481   1.110       .  S
C1478      H1482   1.109       .  S
C1478      H1483   1.110       .  S
C1478      H1484   1.111       .  S
C1485      C1486   1.404       .  A
C1485      C1490   1.407       .  A
C1485      H1492   1.084       .  S
C1486      C1487   1.412       .  A
C1487      C1488   1.399       .  A
C1487      C1494   1.509       .  S
C1488      C1489   1.400       .  A
C1488      H1493   1.085       .  S
C1489      C1490   1.411       .  A
C1490      C1491   1.505       .  S
C1491      H1495   1.111       .  S
C1491      H1496   1.111       .  S
C1491      H1497   1.110       .  S
C1494      H1498   1.109       .  S
C1494      H1499   1.110       .  S
C1494      H1500   1.111       .  S
C1501      C1502   1.401       .  A
C1501      C1506   1.399       .  A
C1501      H1508   1.085       .  S
C1502      C1503   1.413       .  A
C1503      C1504   1.408       .  A
C1503      C1510   1.506       .  S
C1504      C1505   1.404       .  A
C1504      H1509   1.084       .  S
C1505      C1506   1.413       .  A
C1506      C1507   1.509       .  S
C1507      H1511   1.111       .  S
C1507      H1512   1.110       .  S
C1507      H1513   1.109       .  S
C1510      H1514   1.110       .  S
C1510      H1515   1.111       .  S
C1510      H1516   1.111       .  S
C1517      C1518   1.403       .  A
C1517      C1522   1.405       .  A
C1517      H1524   1.084       .  S
C1518      C1519   1.417       .  A
C1519      C1520   1.405       .  A
C1519      C1526   1.508       .  S
C1520      C1521   1.402       .  A
C1520      H1525   1.084       .  S
C1521      C1522   1.417       .  A
C1522      C1523   1.508   1_554  S
C1523      H1527   1.111       .  S
C1523      H1528   1.110       .  S
C1523      H1529   1.109       .  S
C1526      H1530   1.111       .  S
C1526      H1531   1.110       .  S
C1526      H1532   1.111       .  S
C1533      C1534   1.406       .  A
C1533      C1538   1.402       .  A
C1533      H1540   1.084       .  S
C1534      C1535   1.415       .  A
C1535      C1536   1.404       .  A
C1535      C1542   1.507       .  S
C1536      C1537   1.404       .  A
C1536      H1541   1.084       .  S
C1537      C1538   1.412       .  A
C1538      C1539   1.508       .  S
C1539      H1543   1.111       .  S
C1539      H1544   1.110   1_655  S
C1539      H1545   1.109       .  S
C1542      H1546   1.110       .  S
C1542      H1547   1.109       .  S
C1542      H1548   1.111       .  S
C1549      C1550   1.410       .  A
C1549      C1554   1.400       .  A
C1549      H1556   1.083       .  S
C1550      C1551   1.423       .  A
C1551      C1552   1.406       .  A
C1551      C1558   1.508       .  S
C1552      C1553   1.399       .  A
C1552      H1557   1.084       .  S
C1553      C1554   1.407       .  A
C1554      C1555   1.508       .  S
C1555      H1559   1.111       .  S
C1555      H1560   1.110       .  S
C1555      H1561   1.110       .  S
C1558      H1562   1.110       .  S
C1558      H1563   1.109       .  S
C1558      H1564   1.111       .  S
C1565      C1566   1.407       .  A
C1565      C1570   1.404       .  A
C1565      H1572   1.084       .  S
C1566      C1567   1.420       .  A
C1567      C1568   1.398       .  A
C1567      C1574   1.511       .  S
C1568      C1569   1.405       .  A
C1568      H1573   1.083       .  S
C1569      C1570   1.420       .  A
C1570      C1571   1.509       .  S
C1571      H1575   1.111       .  S
C1571      H1576   1.110       .  S
C1571      H1577   1.109       .  S
C1574      H1578   1.110       .  S
C1574      H1579   1.110       .  S
C1574      H1580   1.111       .  S
C1581      C1582   1.397       .  A
C1581      C1586   1.402       .  A
C1581      H1588   1.085       .  S
C1582      C1583   1.406       .  A
C1583      C1584   1.398       .  A
C1583      C1590   1.509       .  S
C1584      C1585   1.409       .  A
C1584      H1589   1.084       .  S
C1585      C1586   1.422       .  A
C1586      C1587   1.509       .  S
C1587      H1591   1.111       .  S
C1587      H1592   1.110       .  S
C1587      H1593   1.110       .  S
C1590      H1594   1.110       .  S
C1590      H1595   1.110       .  S
C1590      H1596   1.111       .  S
C1597      C1598   1.401       .  A
C1597      C1602   1.400       .  A
C1597      H1604   1.084       .  S
C1598      C1599   1.415       .  A
C1599      C1600   1.403       .  A
C1599      C1606   1.508       .  S
C1600      C1601   1.402       .  A
C1600      H1605   1.084       .  S
C1601      C1602   1.416       .  A
C1602      C1603   1.510       .  S
C1603      H1607   1.111       .  S
C1603      H1608   1.109       .  S
C1603      H1609   1.111       .  S
C1606      H1610   1.109       .  S
C1606      H1611   1.110       .  S
C1606      H1612   1.111       .  S
C1613      C1614   1.409       .  A
C1613      C1618   1.409       .  A
C1613      H1620   1.084       .  S
C1614      C1615   1.414       .  A
C1615      C1616   1.399       .  A
C1615      C1622   1.510       .  S
C1616      C1617   1.407       .  A
C1616      H1621   1.084       .  S
C1617      C1618   1.413       .  A
C1618      C1619   1.506       .  S
C1619      H1623   1.111       .  S
C1619      H1624   1.110       .  S
C1619      H1625   1.110       .  S
C1622      H1626   1.109       .  S
C1622      H1627   1.110       .  S
C1622      H1628   1.111       .  S
C1629      C1630   1.397       .  A
C1629      C1634   1.403       .  A
C1629      H1636   1.085       .  S
C1630      C1631   1.405       .  A
C1631      C1632   1.400       .  A
C1631      C1638   1.507       .  S
C1632      C1633   1.411       .  A
C1632      H1637   1.083       .  S
C1633      C1634   1.424       .  A
C1634      C1635   1.509       .  S
C1635      H1639   1.111       .  S
C1635      H1640   1.110       .  S
C1635      H1641   1.110       .  S
C1638      H1642   1.110   1_554  S
C1638      H1643   1.111   1_554  S
C1638      H1644   1.111   1_554  S
C1645      C1646   1.399       .  A
C1645      C1650   1.400       .  A
C1645      H1652   1.084       .  S
C1646      C1647   1.420       .  A
C1647      C1648   1.406       .  A
C1647      C1654   1.508       .  S
C1648      C1649   1.401       .  A
C1648      H1653   1.084       .  S
C1649      C1650   1.419       .  A
C1650      C1651   1.511       .  S
C1651      H1655   1.111       .  S
C1651      H1656   1.111       .  S
C1651      H1657   1.109       .  S
C1654      H1658   1.109   1_455  S
C1654      H1659   1.110   1_455  S
C1654      H1660   1.111   1_455  S
C1661      C1662   1.401       .  A
C1661      C1666   1.402       .  A
C1661      H1668   1.084       .  S
C1662      C1663   1.415       .  A
C1663      C1664   1.404       .  A
C1663      C1670   1.507   1_455  S
C1664      C1665   1.402       .  A
C1664      H1669   1.084       .  S
C1665      C1666   1.418       .  A
C1666      C1667   1.510       .  S
C1667      H1671   1.111       .  S
C1667      H1672   1.111       .  S
C1667      H1673   1.109       .  S
C1670      H1674   1.110       .  S
C1670      H1675   1.109       .  S
C1670      H1676   1.111       .  S
C1677      C1678   1.406       .  A
C1677      C1682   1.406       .  A
C1677      H1684   1.084       .  S
C1678      C1679   1.416       .  A
C1679      C1680   1.401       .  A
C1679      C1686   1.509       .  S
C1680      C1681   1.403       .  A
C1680      H1685   1.085       .  S
C1681      C1682   1.413       .  A
C1682      C1683   1.507       .  S
C1683      H1687   1.111       .  S
C1683      H1688   1.110       .  S
C1683      H1689   1.109       .  S
C1686      H1690   1.105       .  S
C1686      H1691   1.110       .  S
C1686      H1692   1.111       .  S
C1693      C1694   1.404       .  A
C1693      C1698   1.403       .  A
C1693      H1700   1.084       .  S
C1694      C1695   1.414       .  A
C1695      C1696   1.404       .  A
C1695      C1702   1.507       .  S
C1696      C1697   1.404       .  A
C1696      H1701   1.084       .  S
C1697      C1698   1.413       .  A
C1698      C1699   1.508       .  S
C1699      H1703   1.111       .  S
C1699      H1704   1.110       .  S
C1699      H1705   1.109       .  S
C1702      H1706   1.110       .  S
C1702      H1707   1.109       .  S
C1702      H1708   1.111       .  S
C1709      C1710   1.401       .  A
C1709      C1714   1.408       .  A
C1709      H1716   1.084       .  S
C1710      C1711   1.420       .  A
C1711      C1712   1.403       .  A
C1711      C1718   1.511       .  S
C1712      C1713   1.402       .  A
C1712      H1717   1.084       .  S
C1713      C1714   1.422       .  A
C1714      C1715   1.508       .  S
C1715      H1719   1.111       .  S
C1715      H1720   1.110       .  S
C1715      H1721   1.109       .  S
C1718      H1722   1.109       .  S
C1718      H1723   1.110       .  S
C1718      H1724   1.111       .  S
C1725      C1726   1.402       .  A
C1725      C1730   1.401       .  A
C1725      H1732   1.084       .  S
C1726      C1727   1.416       .  A
C1727      C1728   1.406       .  A
C1727      C1734   1.508       .  S
C1728      C1729   1.404       .  A
C1728      H1733   1.084       .  S
C1729      C1730   1.416       .  A
C1730      C1731   1.509       .  S
C1731      H1735   1.111       .  S
C1731      H1736   1.111       .  S
C1731      H1737   1.110       .  S
C1734      H1738   1.110       .  S
C1734      H1739   1.109       .  S
C1734      H1740   1.111       .  S
C1741      C1742   1.406       .  A
C1741      C1746   1.404       .  A
C1741      H1748   1.084       .  S
C1742      C1743   1.417       .  A
C1743      C1744   1.406       .  A
C1743      C1750   1.507       .  S
C1744      C1745   1.403       .  A
C1744      H1749   1.084       .  S
C1745      C1746   1.412       .  A
C1746      C1747   1.508       .  S
C1747      H1751   1.111       .  S
C1747      H1752   1.109       .  S
C1747      H1753   1.110       .  S
C1750      H1754   1.109       .  S
C1750      H1755   1.110       .  S
C1750      H1756   1.111       .  S
C1757      C1758   1.403       .  A
C1757      C1762   1.406       .  A
C1757      H1764   1.084       .  S
C1758      C1759   1.415   1_546  A
C1759      C1760   1.404       .  A
C1759      C1766   1.507       .  S
C1760      C1761   1.403   1_564  A
C1760      H1765   1.084       .  S
C1761      C1762   1.418       .  A
C1762      C1763   1.508       .  S
C1763      H1767   1.111       .  S
C1763      H1768   1.110   1_545  S
C1763      H1769   1.109       .  S
C1766      H1770   1.110       .  S
C1766      H1771   1.109   1_565  S
C1766      H1772   1.111       .  S
C1773      C1774   1.405       .  A
C1773      C1778   1.407       .  A
C1773      H1780   1.084       .  S
C1774      C1775   1.416   1_456  A
C1775      C1776   1.407       .  A
C1775      C1782   1.507       .  S
C1776      C1777   1.405   1_554  A
C1776      H1781   1.084       .  S
C1777      C1778   1.417   1_655  A
C1778      C1779   1.508   1_455  S
C1779      H1783   1.111       .  S
C1779      H1784   1.109   1_655  S
C1779      H1785   1.111       .  S
C1782      H1786   1.109   1_655  S
C1782      H1787   1.110       .  S
C1782      H1788   1.111       .  S
C1789      C1790   1.406       .  A
C1789      C1794   1.406       .  A
C1789      H1796   1.084       .  S
C1790      C1791   1.419   1_445  A
C1791      C1792   1.405       .  A
C1791      C1798   1.508       .  S
C1792      C1793   1.402   1_665  A
C1792      H1797   1.084       .  S
C1793      C1794   1.414       .  A
C1794      C1795   1.507       .  S
C1795      H1799   1.111       .  S
C1795      H1800   1.110       .  S
C1795      H1801   1.109   1_455  S
C1798      H1802   1.110   1_655  S
C1798      H1803   1.109       .  S
C1798      H1804   1.111       .  S
C1805      C1806   1.405       .  A
C1805      C1810   1.408       .  A
C1805      H1812   1.084       .  S
C1806      C1807   1.416   1_455  A
C1807      C1808   1.405       .  A
C1807      C1814   1.508       .  S
C1808      C1809   1.404   1_655  A
C1808      H1813   1.084       .  S
C1809      C1810   1.417       .  A
C1810      C1811   1.508       .  S
C1811      H1815   1.111       .  S
C1811      H1816   1.110       .  S
C1811      H1817   1.109   1_556  S
C1814      H1818   1.110       .  S
C1814      H1819   1.109   1_556  S
C1814      H1820   1.111       .  S
C1821      C1822   1.406       .  A
C1821      C1826   1.406       .  A
C1821      H1828   1.084       .  S
C1822      C1823   1.419   1_566  A
C1823      C1824   1.405       .  A
C1823      C1830   1.509       .  S
C1824      C1825   1.402   1_544  A
C1824      H1829   1.084       .  S
C1825      C1826   1.413       .  A
C1826      C1827   1.507       .  S
C1827      H1831   1.111       .  S
C1827      H1832   1.109   1_556  S
C1827      H1833   1.110       .  S
C1830      H1834   1.109       .  S
C1830      H1835   1.110   1_554  S
C1830      H1836   1.111       .  S
C1837      C1838   1.404       .  A
C1837      C1842   1.408   1_455  A
C1837      H1844   1.084   1_455  S
C1838      C1839   1.415   1_545  A
C1839      C1840   1.408       .  A
C1839      C1846   1.507       .  S
C1840      C1841   1.406   1_565  A
C1840      H1845   1.084       .  S
C1841      C1842   1.418   1_455  A
C1842      C1843   1.508       .  S
C1843      H1847   1.111       .  S
C1843      H1848   1.110   1_655  S
C1843      H1849   1.109       .  S
C1846      H1850   1.110       .  S
C1846      H1851   1.109   1_455  S
C1846      H1852   1.111       .  S
C1853      C1854   1.406       .  A
C1853      C1858   1.407       .  A
C1853      H1860   1.084       .  S
C1854      C1855   1.418   1_455  A
C1855      C1856   1.406       .  A
C1855      C1862   1.508       .  S
C1856      C1857   1.403   1_655  A
C1856      H1861   1.084       .  S
C1857      C1858   1.414       .  A
C1858      C1859   1.507       .  S
C1859      H1863   1.111       .  S
C1859      H1864   1.110       .  S
C1859      H1865   1.109       .  S
C1862      H1866   1.110       .  S
C1862      H1867   1.109       .  S
C1862      H1868   1.111       .  S
C1869      C1870   1.406       .  A
C1869      C1874   1.406       .  A
C1869      H1876   1.084       .  S
C1870      C1871   1.418       .  A
C1871      C1872   1.406       .  A
C1871      C1878   1.508       .  S
C1872      C1873   1.402       .  A
C1872      H1877   1.084       .  S
C1873      C1874   1.414       .  A
C1874      C1875   1.507       .  S
C1875      H1879   1.111       .  S
C1875      H1880   1.110       .  S
C1875      H1881   1.109       .  S
C1878      H1882   1.110       .  S
C1878      H1883   1.110       .  S
C1878      H1884   1.111       .  S
C1885      C1886   1.402       .  A
C1885      C1890   1.404       .  A
C1885      H1892   1.084       .  S
C1886      C1887   1.416   1_655  A
C1887      C1888   1.406       .  A
C1887      C1894   1.508       .  S
C1888      C1889   1.404   1_455  A
C1888      H1893   1.084       .  S
C1889      C1890   1.418       .  A
C1890      C1891   1.508       .  S
C1891      H1895   1.111       .  S
C1891      H1896   1.109       .  S
C1891      H1897   1.110       .  S
C1894      H1898   1.109       .  S
C1894      H1899   1.110       .  S
C1894      H1900   1.111       .  S
C1901      C1902   1.406       .  A
C1901      C1906   1.406       .  A
C1901      H1908   1.084       .  S
C1902      C1903   1.415       .  A
C1903      C1904   1.404       .  A
C1903      C1910   1.508       .  S
C1904      C1905   1.403       .  A
C1904      H1909   1.084       .  S
C1905      C1906   1.413       .  A
C1906      C1907   1.507       .  S
C1907      H1911   1.111       .  S
C1907      H1912   1.111       .  S
C1907      H1913   1.109       .  S
C1910      H1914   1.110       .  S
C1910      H1915   1.109       .  S
C1910      H1916   1.111       .  S
C1917      C1918   1.409   1_455  A
C1917      C1922   1.405       .  A
C1917      H1924   1.084       .  S
C1918      C1919   1.423       .  A
C1919      C1920   1.409       .  A
C1919      C1926   1.508       .  S
C1920      C1921   1.401       .  A
C1920      H1925   1.084       .  S
C1921      C1922   1.413   1_655  A
C1922      C1923   1.508       .  S
C1923      H1927   1.111       .  S
C1923      H1928   1.107       .  S
C1923      H1929   1.110       .  S
C1926      H1930   1.110       .  S
C1926      H1931   1.110       .  S
C1926      H1932   1.111       .  S
C1933      C1934   1.402   1_655  A
C1933      C1938   1.407       .  A
C1933      H1940   1.084       .  S
C1934      C1935   1.410       .  A
C1935      C1936   1.404       .  A
C1935      C1942   1.507       .  S
C1936      C1937   1.407   1_455  A
C1936      H1941   1.084       .  S
C1937      C1938   1.420       .  A
C1938      C1939   1.508       .  S
C1939      H1943   1.111       .  S
C1939      H1944   1.110   1_655  S
C1939      H1945   1.110       .  S
C1942      H1946   1.110       .  S
C1942      H1947   1.109   1_455  S
C1942      H1948   1.111       .  S
C1949      C1950   1.407       .  A
C1949      C1954   1.409       .  A
C1949      H1956   1.084       .  S
C1950      C1951   1.421       .  A
C1951      C1952   1.408       .  A
C1951      C1958   1.509       .  S
C1952      C1953   1.405       .  A
C1952      H1957   1.084       .  S
C1953      C1954   1.421       .  A
C1954      C1955   1.509       .  S
C1955      H1959   1.111       .  S
C1955      H1960   1.109       .  S
C1955      H1961   1.110       .  S
C1958      H1962   1.111       .  S
C1958      H1963   1.109       .  S
C1958      H1964   1.111       .  S
C1965      C1966   1.407   1_545  A
C1965      C1970   1.404       .  A
C1965      H1972   1.082       .  S
C1966      C1967   1.423       .  A
C1967      C1968   1.408       .  A
C1967      C1974   1.509       .  S
C1968      C1969   1.407   1_565  A
C1968      H1973   1.084       .  S
C1969      C1970   1.419       .  A
C1970      C1971   1.510       .  S
C1971      H1975   1.111       .  S
C1971      H1976   1.110       .  S
C1971      H1977   1.110       .  S
C1974      H1978   1.110       .  S
C1974      H1979   1.110       .  S
C1974      H1980   1.111       .  S
C1981      C1982   1.405   1_565  A
C1981      C1986   1.407       .  A
C1981      H1988   1.084       .  S
C1982      C1983   1.420       .  A
C1983      C1984   1.410       .  A
C1983      C1990   1.508       .  S
C1984      C1985   1.408   1_545  A
C1984      H1989   1.084       .  S
C1985      C1986   1.422       .  A
C1986      C1987   1.509       .  S
C1987      H1991   1.111       .  S
C1987      H1992   1.111       .  S
C1987      H1993   1.109       .  S
C1990      H1994   1.110       .  S
C1990      H1995   1.110       .  S
C1990      H1996   1.111       .  S
C1997      C1998   1.408       .  A
C1997      C2002   1.407       .  A
C1997      H2004   1.084       .  S
C1998      C1999   1.422       .  A
C1999      C2000   1.406       .  A
C1999      C2006   1.509       .  S
C2000      C2001   1.407       .  A
C2000      H2005   1.084       .  S
C2001      C2002   1.420       .  A
C2002      C2003   1.509       .  S
C2003      H2007   1.111       .  S
C2003      H2008   1.110       .  S
C2003      H2009   1.108       .  S
C2006      H2010   1.110       .  S
C2006      H2011   1.110       .  S
C2006      H2012   1.111       .  S
C2013      C2014   1.405       .  A
C2013      C2018   1.405       .  A
C2013      H2020   1.084       .  S
C2014      C2015   1.418   1_545  A
C2015      C2016   1.405       .  A
C2015      C2022   1.508       .  S
C2016      C2017   1.407   1_565  A
C2016      H2021   1.083       .  S
C2017      C2018   1.420       .  A
C2018      C2019   1.506       .  S
C2019      H2023   1.111       .  S
C2019      H2024   1.109       .  S
C2019      H2025   1.109       .  S
C2022      H2026   1.110       .  S
C2022      H2027   1.110       .  S
C2022      H2028   1.111       .  S
C2029      C2030   1.408   1_565  A
C2029      C2034   1.408       .  A
C2029      H2036   1.083       .  S
C2030      C2031   1.422       .  A
C2031      C2032   1.410       .  A
C2031      C2038   1.509       .  S
C2032      C2033   1.410       .  A
C2032      H2037   1.083       .  S
C2033      C2034   1.423   1_545  A
C2034      C2035   1.509       .  S
C2035      H2039   1.111       .  S
C2035      H2040   1.110       .  S
C2035      H2041   1.110       .  S
C2038      H2042   1.110       .  S
C2038      H2043   1.110       .  S
C2038      H2044   1.111       .  S
C2045      C2046   1.407   1_556  A
C2045      C2050   1.406       .  A
C2045      H2052   1.083       .  S
C2046      C2047   1.420       .  A
C2047      C2048   1.407       .  A
C2047      C2054   1.509       .  S
C2048      C2049   1.410   1_554  A
C2048      H2053   1.082       .  S
C2049      C2050   1.423       .  A
C2050      C2051   1.510       .  S
C2051      H2055   1.111       .  S
C2051      H2056   1.110       .  S
C2051      H2057   1.110       .  S
C2054      H2058   1.110       .  S
C2054      H2059   1.110       .  S
C2054      H2060   1.111       .  S
C2061      C2062   1.407       .  A
C2061      C2066   1.406       .  A
C2061      H2068   1.083       .  S
C2062      C2063   1.423   1_554  A
C2063      C2064   1.408       .  A
C2063      C2070   1.510       .  S
C2064      C2065   1.407   1_556  A
C2064      H2069   1.083       .  S
C2065      C2066   1.421       .  A
C2066      C2067   1.509       .  S
C2067      H2071   1.111       .  S
C2067      H2072   1.110       .  S
C2067      H2073   1.110       .  S
C2070      H2074   1.110       .  S
C2070      H2075   1.110       .  S
C2070      H2076   1.111       .  S
C2077      C2078   1.409       .  A
C2077      C2082   1.408       .  A
C2077      H2084   1.083       .  S
C2078      C2079   1.422       .  A
C2079      C2080   1.408       .  A
C2079      C2086   1.509       .  S
C2080      C2081   1.408       .  A
C2080      H2085   1.083       .  S
C2081      C2082   1.421       .  A
C2082      C2083   1.509       .  S
C2083      H2087   1.111       .  S
C2083      H2088   1.110       .  S
C2083      H2089   1.110       .  S
C2086      H2090   1.110       .  S
C2086      H2091   1.110       .  S
C2086      H2092   1.111       .  S
C2093      C2094   1.408       .  A
C2093      C2098   1.409       .  A
C2093      H2100   1.083       .  S
C2094      C2095   1.421       .  A
C2095      C2096   1.406       .  A
C2095      C2102   1.510       .  S
C2096      C2097   1.409       .  A
C2096      H2101   1.083       .  S
C2097      C2098   1.423       .  A
C2098      C2099   1.509       .  S
C2099      H2103   1.111       .  S
C2099      H2104   1.110       .  S
C2099      H2105   1.110       .  S
C2102      H2106   1.110       .  S
C2102      H2107   1.110       .  S
C2102      H2108   1.111       .  S
C2109      C2110   1.406       .  A
C2109      C2114   1.408       .  A
C2109      H2116   1.084       .  S
C2110      C2111   1.420   1_554  A
C2111      C2112   1.409       .  A
C2111      C2118   1.508       .  S
C2112      C2113   1.407   1_556  A
C2112      H2117   1.084       .  S
C2113      C2114   1.421       .  A
C2114      C2115   1.509       .  S
C2115      H2119   1.111       .  S
C2115      H2120   1.110       .  S
C2115      H2121   1.109       .  S
C2118      H2122   1.110       .  S
C2118      H2123   1.110       .  S
C2118      H2124   1.111       .  S
C2125      C2126   1.407   1_556  A
C2125      C2130   1.408       .  A
C2125      H2132   1.083       .  S
C2126      C2127   1.421       .  A
C2127      C2128   1.408       .  A
C2127      C2134   1.510       .  S
C2128      C2129   1.410       .  A
C2128      H2133   1.083       .  S
C2129      C2130   1.423   1_554  A
C2130      C2131   1.509       .  S
C2131      H2135   1.111       .  S
C2131      H2136   1.110       .  S
C2131      H2137   1.110       .  S
C2134      H2138   1.110       .  S
C2134      H2139   1.110       .  S
C2134      H2140   1.111       .  S
