geometry optimzed in LAMMPS
_audit_creation_date              2020-11-30 
_audit_creation_method            'lammps2cif' 
_symmetry_space_group_name_H-M    'P1' 
_symmetry_Int_Tables_number       1 
_symmetry_cell_setting            triclinic 
loop_ 
_symmetry_equiv_pos_as_xyz 
  x,y,z 
_cell_length_a                    36.92060596 
_cell_length_b                    36.78181552484923 
_cell_length_c                    43.46760671464513 
_cell_angle_alpha                 90.0473249444501 
_cell_angle_beta                  89.65463692010177 
_cell_angle_gamma                 120.49375593821182 
loop_ 
_atom_site_label 
_atom_site_type_symbol 
_atom_site_fract_x 
_atom_site_fract_y 
_atom_site_fract_z 
_atom_site_charge 
O1          O  0.59144994  0.01489822  0.97680023    -0.78600
C2          C  0.59185410  0.09489475  0.05208708     0.82400
O3          O  0.47766528  0.92439830  0.04548340    -0.79800
O4          O  0.45445558  0.04387318  0.04784236    -0.81200
O5          O  0.50555361  0.06891615  0.94218009    -0.81000
O6          O  0.55471963  0.01398411  0.93635362    -0.79700
Zn7        Zn  0.55829385  0.01456143  0.01374987     1.55700
O8          O  0.50404656  0.10137929  0.98513596    -0.81100
Cd9        Cd  0.50516913  0.01558165  0.95711559     1.59700
Cd10       Cd  0.45769478  0.95854155  0.01822844     1.59600
O11         O  0.45102790  0.96455391  0.94121678    -0.81000
O12         O  0.50711268  0.01307951  0.00278770    -1.91600
Cd13       Cd  0.50726717  0.06395670  0.02027719     1.59900
O14         O  0.42050833  0.92178924  0.98124708    -0.81000
O15         O  0.56064045  0.09994667  0.04720389    -0.79700
C16         C  0.51502657  0.93240879  0.05090880     0.82900
C17         C  0.58637385  0.01408581  0.94780663     0.82500
O18         O  0.59391202  0.06461897  0.03972710    -0.78600
C19         C  0.50377368  0.09861770  0.95580855     0.83300
O20         O  0.54672199  0.96485874  0.03948542    -0.78700
C21         C  0.42194828  0.93002696  0.95250927     0.83500
C22         C  0.42303771  0.00763126  0.05421807     0.83800
O23         O  0.41996549  0.97330805  0.04475403    -0.81100
O24         O  0.59468770  0.58669548  0.02168442    -0.78600
C25         C  0.59414629  0.50524774  0.95102701     0.82400
O26         O  0.47555222  0.56003480  0.96130435    -0.79800
O27         O  0.45672035  0.41798137  0.95616621    -0.81200
O28         O  0.50743194  0.44713185  0.06198418    -0.81000
O29         O  0.56136517  0.55328850  0.06442450    -0.79700
Zn30       Zn  0.55889659  0.55270986  0.98633213     1.55700
O31         O  0.50238820  0.41065997  0.01957829    -0.81100
Cd32       Cd  0.50892938  0.50090385  0.04637893     1.59700
Cd33       Cd  0.45792501  0.50475397  0.98641301     1.59600
O34         O  0.45479696  0.49650515  0.06407296    -0.81000
O35         O  0.50874889  0.50260852  0.00042192    -1.91600
Cd36       Cd  0.50882233  0.45147025  0.98387983     1.59900
O37         O  0.41869918  0.49819434  0.02392269    -0.81000
O38         O  0.56379138  0.46854410  0.95817832    -0.79700
C39         C  0.51204588  0.58986242  0.95335160     0.82900
C40         C  0.59262213  0.58399423  0.05091451     0.82500
O41         O  0.59430261  0.53820362  0.95999693    -0.78600
C42         C  0.50276488  0.41408006  0.04881526     0.83300
O43         O  0.54513080  0.58986741  0.96135703    -0.78700
C44         C  0.42219625  0.49485498  0.05292515     0.83500
C45         C  0.42653821  0.42327680  0.94810787     0.83800
O46         O  0.42322892  0.45446222  0.95715677    -0.81100
O47         O  0.41053050  0.00298229  0.47620981    -0.78600
C48         C  0.40894114  0.91799857  0.54547242     0.82400
O49         O  0.52141745  0.09252993  0.54314042    -0.79800
O50         O  0.54617275  0.97196618  0.54021976    -0.81200
O51         O  0.50193798  0.95646063  0.43462171    -0.81000
O52         O  0.44578350  0.00593483  0.43390066    -0.79700
Zn53       Zn  0.44266751  0.00209791  0.51232258     1.55700
O54         O  0.49932210  0.91923275  0.47564307    -0.81100
Cd55       Cd  0.49784720  0.00692438  0.45272106     1.59700
Cd56       Cd  0.54196073  0.05814039  0.51695196     1.59600
O57         O  0.55204643  0.06107368  0.43894799    -0.81000
O58         O  0.49405414  0.00514060  0.49881275    -1.91600
Cd59       Cd  0.49437138  0.95326680  0.51264670     1.59900
O60         O  0.58351476  0.09537651  0.48210508    -0.81000
O61         O  0.44085525  0.91450045  0.53911256    -0.79700
C62         C  0.48416020  0.08344711  0.55048158     0.82900
C63         C  0.41387758  0.00398250  0.44711137     0.82500
O64         O  0.40596707  0.94901554  0.53587053    -0.78600
C65         C  0.50271408  0.92515375  0.44656354     0.83300
O66         O  0.45255657  0.05004067  0.54032833    -0.78700
C67         C  0.58277111  0.09160812  0.45285641     0.83500
C68         C  0.57385058  0.00698292  0.55181667     0.83800
O69         O  0.57545188  0.04176558  0.54612783    -0.81100
O70         O  0.99749974  0.41015457  0.02635011    -0.78600
C71         C  0.91664467  0.40773920  0.95468250     0.82400
O72         O  0.09085490  0.52614452  0.96325326    -0.79800
O73         O  0.96840163  0.54496872  0.95784782    -0.81200
O74         O  0.94393256  0.49661618  0.06406749    -0.81000
O75         O  0.99609560  0.44362278  0.06832448    -0.79700
Zn76       Zn  0.99870256  0.44382869  0.99013253     1.55700
O77         O  0.91331237  0.50057201  0.02118124    -0.81100
Cd78       Cd  0.99605531  0.49466828  0.04869930     1.59700
Cd79       Cd  0.05367974  0.54442041  0.98829039     1.59600
O80         O  0.04642389  0.54899265  0.06497481    -0.81000
O81         O  0.99933430  0.49411019  0.00296333    -1.91600
Cd82       Cd  0.94838276  0.49342636  0.98629866     1.59900
O83         O  0.08680042  0.58443631  0.02509857    -0.81000
O84         O  0.91081275  0.43834661  0.96100811    -0.79700
C85         C  0.08280273  0.48913450  0.95584379     0.82900
C86         C  0.99659872  0.41279745  0.05550747     0.82500
O87         O  0.94872457  0.40729010  0.96448411    -0.78600
C88         C  0.91599653  0.50111575  0.05045523     0.83300
O89         O  0.04899677  0.45663006  0.96461965    -0.78700
C90         C  0.07840496  0.58141468  0.05390017     0.83500
C91         C  0.00437360  0.57526099  0.94972549     0.83800
O92         O  0.03882403  0.57895872  0.95887732    -0.81100
O93         O  0.93915551  0.41170257  0.53804218    -0.78600
C94         C  0.98984686  0.41461494  0.44857002     0.82400
O95         O  0.08409113  0.52632971  0.54041694    -0.79800
O96         O  0.04807616  0.55166049  0.43820994    -0.81200
O97         O  0.91248883  0.50991267  0.47874200    -0.81000
O98         O  0.90312168  0.44507988  0.54000399    -0.79700
Zn99       Zn  0.99109095  0.44678190  0.51346843     1.55700
O100        O  0.94701375  0.50755445  0.43757235    -0.81100
Cd101      Cd  0.94391040  0.49996723  0.51490792     1.59700
Cd102      Cd  0.04894497  0.54685187  0.51568621     1.59600
O103        O  0.96462721  0.55185340  0.54311597    -0.81000
O104        O  0.99466523  0.49820420  0.49994353    -1.91600
Cd105      Cd  0.99470784  0.49940938  0.45411801     1.59900
O106        O  0.03476193  0.58248103  0.54486429    -0.81000
O107        O  0.99129522  0.44608392  0.43518123    -0.79700
C108        C  0.07458664  0.48890730  0.54793946     0.82900
C109        C  0.90718333  0.41348469  0.54672008     0.82500
O110        O  0.98966838  0.41225084  0.47776864    -0.78600
C111        C  0.91847029  0.51282357  0.44968308     0.83300
O112        O  0.04004528  0.45728287  0.53949147    -0.78700
C113        C  0.00051654  0.58084587  0.55237878     0.83500
C114        C  0.07934916  0.58368134  0.45028354     0.83800
O115        O  0.08458664  0.58651119  0.47937126    -0.81100
N116        N  0.99152775  0.27949771  0.38404427    -0.03600
C117        C  0.02574944  0.27581615  0.37921773    -0.01000
C118        C  0.01370298  0.23726451  0.36573229    -0.23900
C119        C  0.97065007  0.21709317  0.36197161    -0.24100
C120        C  0.95794001  0.24414636  0.37313855    -0.01100
H121        H  0.03422729  0.22640214  0.35733213     0.12600
H122        H  0.95119646  0.18712847  0.35069540     0.12700
C123        C  0.53272481  0.81806945  0.36220490     0.80100
N124        N  0.52283557  0.81362201  0.33171151    -0.78200
C125        C  0.53253781  0.79001433  0.31294123     0.82500
N126        N  0.55269313  0.77109798  0.32488479    -0.78200
C127        C  0.56458150  0.77657345  0.35476726     0.82600
N128        N  0.55472501  0.80025853  0.37322491    -0.79900
C129        C  0.72021924  0.19302218  0.36871730     0.80100
N130        N  0.76039311  0.20431440  0.37662652    -0.78200
C131        C  0.79229778  0.22249871  0.35561066     0.82500
N132        N  0.78358848  0.22952607  0.32672552    -0.78200
C133        C  0.74378889  0.21666615  0.31804232     0.82600
N134        N  0.71222828  0.19822548  0.33902809    -0.79900
N135        N  0.70497470  0.71446812  0.37581215    -0.03600
C136        C  0.70461298  0.75011176  0.36840917    -0.01000
C137        C  0.74263161  0.77893812  0.35505312    -0.23900
C138        C  0.76712615  0.76049780  0.35481351    -0.24100
C139        C  0.74344623  0.72091004  0.36802156    -0.01100
H140        H  0.75093199  0.80911046  0.34500501     0.12600
H141        H  0.79802883  0.77360288  0.34449813     0.12700
C142        C  0.82463896  0.55624974  0.36410061     0.80100
N143        N  0.81420944  0.53675248  0.33618886    -0.78200
C144        C  0.78999886  0.54344891  0.31626044     0.82500
N145        N  0.77641838  0.56998930  0.32452935    -0.78200
C146        C  0.78828988  0.59176821  0.35124529     0.82600
N147        N  0.81152641  0.58391285  0.37159717    -0.79900
C148        C  0.17512104  0.72182832  0.36448974     0.80100
N149        N  0.18854727  0.76206872  0.37402100    -0.78200
C150        C  0.21068432  0.79522261  0.35453543     0.82500
N151        N  0.21840565  0.78782195  0.32533211    -0.78200
C152        C  0.20425072  0.74798640  0.31527662     0.82600
N153        N  0.18272348  0.71519267  0.33495943    -0.79900
N154        N  0.28395671  0.00122652  0.37376793    -0.03600
C155        C  0.28180207  0.03545066  0.36514318    -0.01000
C156        C  0.24311339  0.02237880  0.35189300    -0.23900
C157        C  0.22071227  0.97883263  0.35314360    -0.24100
C158        C  0.24648486  0.96655658  0.36697801    -0.01100
H159        H  0.23312789  0.04224509  0.34097924     0.12600
H160        H  0.19012472  0.95847228  0.34319408     0.12700
C161        C  0.27085612  0.44065191  0.36954926     0.80100
N162        N  0.23023365  0.41892307  0.37953248    -0.78200
C163        C  0.19792404  0.40273866  0.35930824     0.82500
N164        N  0.20634054  0.40698419  0.32874766    -0.78200
C165        C  0.24646961  0.42776963  0.31807684     0.82600
N166        N  0.27869877  0.44474807  0.33855610    -0.79900
C167        C  0.46604495  0.27653575  0.36691966     0.80100
N168        N  0.43556181  0.23556779  0.37229711    -0.78200
C169        C  0.42428183  0.20571726  0.34997406     0.82500
N170        N  0.44511834  0.21696427  0.32281492    -0.78200
C171        C  0.47358735  0.25761492  0.31616411     0.82600
N172        N  0.48348372  0.28755256  0.33810596    -0.79900
C173        C  0.56097028  0.83600210  0.13196131     0.80100
N174        N  0.54777578  0.83042800  0.16186940    -0.78200
C175        C  0.55791369  0.80840678  0.18170433     0.82500
N176        N  0.58086288  0.79140536  0.17141485    -0.78200
C177        C  0.59479634  0.79706544  0.14186990     0.82600
N178        N  0.58489452  0.81955425  0.12230907    -0.79900
C179        C  0.72735402  0.19299276  0.13763503     0.80100
N180        N  0.71760209  0.19955600  0.16661721    -0.78200
C181        C  0.74848344  0.22000607  0.18772138     0.82500
N182        N  0.78876534  0.23230074  0.18005070    -0.78200
C183        C  0.79892940  0.22518491  0.15155339     0.82600
N184        N  0.76809862  0.20626536  0.13032045    -0.79900
N185        N  0.72499585  0.72174610  0.11770948    -0.03600
C186        C  0.72695792  0.75888280  0.12388032    -0.01000
C187        C  0.76494633  0.78619428  0.13770761    -0.23900
C188        C  0.78661352  0.76491370  0.14021009    -0.24100
C189        C  0.76109077  0.72517286  0.12803930    -0.01100
H190        H  0.77455643  0.81699617  0.14714281     0.12600
H191        H  0.81637550  0.77612785  0.15165100     0.12700
C192        C  0.82120448  0.54398203  0.13498507     0.80100
N193        N  0.81562379  0.53058211  0.16480057    -0.78200
C194        C  0.79760153  0.54425465  0.18558467     0.82500
N195        N  0.78593281  0.57195244  0.17652617    -0.78200
C196        C  0.79310583  0.58764229  0.14752514     0.82600
N197        N  0.81076999  0.57338886  0.12676985    -0.79900
C198        C  0.17712075  0.72497596  0.13364437     0.80100
N199        N  0.18048878  0.71699487  0.16372047    -0.78200
C200        C  0.19747719  0.74883540  0.18434528     0.82500
N201        N  0.21075526  0.78868728  0.17487441    -0.78200
C202        C  0.20627361  0.79750021  0.14527338     0.82600
N203        N  0.18951942  0.76523301  0.12454761    -0.79900
N204        N  0.28731720  0.00440445  0.12065347    -0.03600
C205        C  0.28529763  0.03913020  0.12830478    -0.01000
C206        C  0.24422548  0.02735988  0.13567591    -0.23900
C207        C  0.22068070  0.98405729  0.13312723    -0.24100
C208        C  0.24791168  0.97076369  0.12377628    -0.01100
H209        H  0.23298650  0.04776269  0.14369670     0.12600
H210        H  0.18802100  0.96422355  0.13968577     0.12700
C211        C  0.27712082  0.43914568  0.13465486     0.80100
N212        N  0.28311033  0.44250928  0.16583695    -0.78200
C213        C  0.24963454  0.42440531  0.18552583     0.82500
N214        N  0.21026896  0.40507689  0.17395094    -0.78200
C215        C  0.20366417  0.40085936  0.14326696     0.82600
N216        N  0.23712179  0.41673894  0.12374219    -0.79900
C217        C  0.46908493  0.27969343  0.13459207     0.80100
N218        N  0.44147070  0.23871373  0.12702821    -0.78200
C219        C  0.42798476  0.20751762  0.14847700     0.82500
N220        N  0.44267758  0.21767859  0.17764793    -0.78200
C221        C  0.46921469  0.25832760  0.18585769     0.82600
N222        N  0.48192840  0.28926619  0.16433593    -0.79900
N223        N  0.99727708  0.27883316  0.12239219    -0.03600
C224        C  0.03138126  0.27490404  0.12684787    -0.01000
C225        C  0.01928213  0.23668827  0.14096033    -0.23900
C226        C  0.97635386  0.21695060  0.14551941    -0.24100
C227        C  0.96372029  0.24403828  0.13443966    -0.01100
H228        H  0.03969629  0.22564868  0.14905027     0.12600
H229        H  0.95690892  0.18702658  0.15700066     0.12700
O230        O  0.58623520  0.53581923  0.54181110    -0.78600
C231        C  0.57983659  0.58050118  0.45015726     0.82400
O232        O  0.46571449  0.55390899  0.54309828    -0.79800
O233        O  0.44410239  0.49012805  0.43908160    -0.81200
O234        O  0.49990855  0.40812662  0.48226915    -0.81000
O235        O  0.55579560  0.46625183  0.54523165    -0.79700
Zn236      Zn  0.54967538  0.54865413  0.51539837     1.55700
O237        O  0.50038093  0.44311168  0.44030080    -0.81100
Cd238      Cd  0.50203820  0.44755401  0.51833558     1.59700
Cd239      Cd  0.44920154  0.49963120  0.51680290     1.59600
O240        O  0.44973119  0.41302667  0.54625399    -0.81000
O241        O  0.50008124  0.49787476  0.50194013    -1.91600
Cd242      Cd  0.49884590  0.49538776  0.45594451     1.59900
O243        O  0.41386163  0.44714542  0.54401939    -0.81000
O244        O  0.54913416  0.54898955  0.43709854    -0.79700
C245        C  0.50208461  0.58452618  0.55004307     0.82900
C246        C  0.58562764  0.50312509  0.55216020     0.82500
O247        O  0.58334982  0.58264613  0.47925641    -0.78600
C248        C  0.49986414  0.41162627  0.45297336     0.83300
O249        O  0.53527564  0.58558044  0.54050026    -0.78700
C250        C  0.41818776  0.41673816  0.55341873     0.83500
C251        C  0.41283929  0.49062705  0.45116452     0.83800
O252        O  0.41049148  0.49495903  0.48015987    -0.81100
C253        C  0.53727800  0.72276019  0.63320030     0.80100
N254        N  0.55925942  0.76413335  0.62465892    -0.78200
C255        C  0.56853066  0.79527226  0.64543284     0.82500
N256        N  0.55552136  0.78478158  0.67501561    -0.78200
C257        C  0.53434634  0.74379735  0.68417230     0.82600
N258        N  0.52563169  0.71284399  0.66328894    -0.79900
C259        C  0.72335159  0.53756582  0.63486857     0.80100
N260        N  0.76417719  0.56174675  0.62564033    -0.78200
C261        C  0.79611102  0.56940272  0.64493712     0.82500
N262        N  0.78691895  0.55283361  0.67374593    -0.78200
C263        C  0.74648996  0.52952897  0.68370058     0.82600
N264        N  0.71469138  0.52212352  0.66421044    -0.79900
N265        N  0.69963978  0.00381412  0.62580246    -0.03600
C266        C  0.70145703  0.96910562  0.63391413    -0.01000
C267        C  0.73871459  0.98138223  0.64916393    -0.23900
C268        C  0.76010783  0.02479197  0.65052602    -0.24100
C269        C  0.73498812  0.03779159  0.63658496    -0.01100
H270        H  0.74814093  0.96104284  0.66001530     0.12600
H271        H  0.78944590  0.04453225  0.66231785     0.12700
C272        C  0.80444561  0.28203406  0.63426946     0.80100
N273        N  0.80405425  0.29325217  0.66408247    -0.78200
C274        C  0.78479150  0.26324663  0.68612186     0.82500
N275        N  0.76698410  0.22208759  0.67843895    -0.78200
C276        C  0.76985196  0.21008686  0.64944203     0.82600
N277        N  0.78856979  0.24038862  0.62733513    -0.79900
C278        C  0.17822300  0.45818935  0.63195771     0.80100
N279        N  0.18146206  0.47118483  0.66168186    -0.78200
C280        C  0.20209898  0.46104277  0.68264979     0.82500
N281        N  0.21860514  0.43693100  0.67392178    -0.78200
C282        C  0.21402224  0.42216448  0.64470732     0.82600
N283        N  0.19314432  0.43233490  0.62394601    -0.79900
N284        N  0.28322606  0.28638262  0.62321064    -0.03600
C285        C  0.24705139  0.28522850  0.63119558    -0.01000
C286        C  0.22123348  0.24846769  0.64731587    -0.23900
C287        C  0.24271155  0.22694656  0.64969559    -0.24100
C288        C  0.28085046  0.25100447  0.63474600    -0.01100
H289        H  0.19168476  0.23997500  0.65846774     0.12600
H290        H  0.23289532  0.19844163  0.66286225     0.12700
C291        C  0.45792557  0.18809267  0.63890132     0.80100
N292        N  0.42838117  0.19908207  0.63305254    -0.78200
C293        C  0.41948406  0.22090164  0.65417343     0.82500
N294        N  0.44149580  0.23262580  0.68071092    -0.78200
C295        C  0.46963406  0.22060811  0.68766986     0.82600
N296        N  0.47715224  0.19747504  0.66688302    -0.79900
C297        C  0.28166617  0.82077089  0.63735722     0.80100
N298        N  0.24085049  0.80960828  0.63167778    -0.78200
C299        C  0.21096553  0.79158801  0.65415996     0.82500
N300        N  0.22183305  0.78288373  0.68164561    -0.78200
C301        C  0.26208367  0.79451174  0.68802091     0.82600
N302        N  0.29204480  0.81441736  0.66605240    -0.79900
N303        N  0.00315987  0.70765885  0.62978128    -0.03600
C304        C  0.96727369  0.70718300  0.63772114    -0.01000
C305        C  0.97693420  0.74359476  0.65347739    -0.23900
C306        C  0.02008296  0.76740158  0.65482766    -0.24100
C307        C  0.03580366  0.74490941  0.63993275    -0.01100
H308        H  0.95502074  0.75121135  0.66416754     0.12600
H309        H  0.03808203  0.79718474  0.66666731     0.12700
N310        N  0.00573303  0.70017579  0.87160312    -0.03600
C311        C  0.97068984  0.70014929  0.86263936    -0.01000
C312        C  0.98176198  0.73680211  0.84649693    -0.23900
C313        C  0.02515859  0.76003358  0.84575162    -0.24100
C314        C  0.03897467  0.73670663  0.86140842    -0.01100
H315        H  0.96069528  0.74482111  0.83520009     0.12600
H316        H  0.04444220  0.78965804  0.83385691     0.12700
C317        C  0.47638772  0.20210449  0.86930881     0.80100
N318        N  0.44943958  0.21577048  0.87699380    -0.78200
C319        C  0.43842332  0.23563849  0.85597342     0.82500
N320        N  0.45364748  0.24096432  0.82692331    -0.78200
C321        C  0.47863299  0.22564274  0.81821693     0.82600
N322        N  0.48988286  0.20605180  0.83949777    -0.79900
C323        C  0.28709679  0.82365754  0.86832789     0.80100
N324        N  0.24591499  0.80977480  0.87530354    -0.78200
C325        C  0.21556143  0.79017400  0.85359991     0.82500
N326        N  0.22694818  0.78490377  0.82505831    -0.78200
C327        C  0.26746065  0.79910709  0.81739334     0.82600
N328        N  0.29757459  0.81856596  0.83907148    -0.79900
C329        C  0.53935359  0.72144155  0.86642415     0.80100
N330        N  0.52823414  0.71176100  0.83637395    -0.78200
C331        C  0.53793563  0.74290185  0.81543241     0.82500
N332        N  0.55939256  0.78375740  0.82449306    -0.78200
C333        C  0.57254197  0.79405619  0.85392012     0.82600
N334        N  0.56286657  0.76279275  0.87472799    -0.79900
C335        C  0.72724720  0.52917741  0.86648247     0.80100
N336        N  0.76831987  0.55412204  0.87448632    -0.78200
C337        C  0.79951916  0.56395590  0.85361690     0.82500
N338        N  0.78934455  0.55007776  0.82426365    -0.78200
C339        C  0.74859136  0.52734660  0.81540381     0.82600
N340        N  0.71749937  0.51672301  0.83663331    -0.79900
N341        N  0.70691808  0.00144147  0.87150479    -0.03600
C342        C  0.70723180  0.96619117  0.86289395    -0.01000
C343        C  0.74223726  0.97712954  0.84473101    -0.23900
C344        C  0.76370768  0.02049841  0.84191179    -0.24100
C345        C  0.74104631  0.03451255  0.85842240    -0.01100
H346        H  0.74962240  0.95579035  0.83287032     0.12600
H347        H  0.79127638  0.03943891  0.82780294     0.12700
C348        C  0.81206088  0.27865152  0.86651242     0.80100
N349        N  0.79760827  0.23704440  0.87234935    -0.78200
C350        C  0.77672281  0.20724379  0.85048523     0.82500
N351        N  0.77038291  0.21980905  0.82269846    -0.78200
C352        C  0.78616662  0.26112053  0.81600209     0.82600
N353        N  0.80793957  0.29065633  0.83774249    -0.79900
C354        C  0.17922944  0.45650915  0.86556748     0.80100
N355        N  0.17795410  0.46711480  0.83568080    -0.78200
C356        C  0.19627180  0.45603503  0.81325159     0.82500
N357        N  0.21515620  0.43398427  0.82074648    -0.78200
C358        C  0.21526427  0.42139665  0.85002527     0.82600
N359        N  0.19696997  0.43271394  0.87240574    -0.79900
N360        N  0.29692636  0.29552078  0.87396589    -0.03600
C361        C  0.26324382  0.29461788  0.86104829    -0.01000
C362        C  0.24109257  0.25841204  0.84366452    -0.23900
C363        C  0.26255093  0.23685687  0.84550347    -0.24100
C364        C  0.29703019  0.26063658  0.86399091    -0.01100
H365        H  0.21413233  0.25021511  0.82935584     0.12600
H366        H  0.25578371  0.20896712  0.83258105     0.12700
C367        C  0.25007632  0.38303303  0.83045015    -0.09300
C368        C  0.23215849  0.39255934  0.85572918     0.06900
C369        C  0.22956529  0.37260908  0.88431576    -0.03100
C370        C  0.24107006  0.34158953  0.88603697    -0.07500
C371        C  0.25572576  0.33040138  0.85998041     0.06000
C372        C  0.26178760  0.35260101  0.83239946    -0.02500
Br373      Br  0.28683319  0.34309670  0.79670822    -0.02200
H374        H  0.25448907  0.39870523  0.80851364     0.09900
H375        H  0.23766318  0.32543835  0.90763412     0.07900
Br376      Br  0.21099759  0.38540186  0.92197788    -0.02700
C377        C  0.75183460  0.13590722  0.82845176    -0.09300
C378        C  0.76556876  0.16227982  0.85456083     0.06900
C379        C  0.76899545  0.14479749  0.88278921    -0.03100
C380        C  0.76073697  0.10306362  0.88373839    -0.07500
C381        C  0.74887110  0.07807996  0.85720857     0.06000
C382        C  0.74340497  0.09445799  0.82964314    -0.02500
Br383      Br  0.72230505  0.06066317  0.79323170    -0.02200
H384        H  0.74773448  0.14739926  0.80659241     0.09900
H385        H  0.76374875  0.09005088  0.90527748     0.07900
Br386      Br  0.78340390  0.17459967  0.92120150    -0.02700
C387        C  0.64218598  0.84747796  0.87442545    -0.09300
C388        C  0.60395482  0.83837604  0.86108580     0.06900
C389        C  0.59880320  0.87199810  0.85121701    -0.03100
C390        C  0.63202653  0.91363076  0.85385879    -0.07500
C391        C  0.67104268  0.92256057  0.86553223     0.06000
C392        C  0.67584553  0.88906447  0.87617830    -0.02500
Br393      Br  0.72807468  0.89822091  0.89231984    -0.02200
H394        H  0.64678000  0.82197889  0.88181311     0.09900
H395        H  0.62803376  0.93896840  0.84517346     0.07900
Br396      Br  0.54743634  0.86283707  0.83328776    -0.02700
C397        C  0.36558343  0.21163000  0.87349456    -0.09300
C398        C  0.40431122  0.24430934  0.86238194     0.06900
C399        C  0.40795402  0.28289352  0.85365992    -0.03100
C400        C  0.37296786  0.28788353  0.85536118    -0.07500
C401        C  0.33383227  0.25479879  0.86541352     0.06000
C402        C  0.33026887  0.21636602  0.87462452    -0.02500
Br403      Br  0.27795647  0.16927228  0.88840183    -0.02200
H404        H  0.36224797  0.18158696  0.87983698     0.09900
H405        H  0.37605481  0.31731521  0.84763386     0.07900
Br406      Br  0.45990998  0.32972240  0.83901506    -0.02700
C407        C  0.14099510  0.74307092  0.83942386    -0.09300
C408        C  0.17005184  0.77433077  0.85946180     0.06900
C409        C  0.15468601  0.79177428  0.88143523    -0.03100
C410        C  0.11141987  0.77753896  0.88290479    -0.07500
C411        C  0.08324838  0.74728858  0.86214869     0.06000
C412        C  0.09855576  0.73073247  0.83989810    -0.02500
Br413      Br  0.06410414  0.69543453  0.80700232    -0.02200
H414        H  0.15155522  0.72945387  0.82195756     0.09900
H415        H  0.09996678  0.79155750  0.89936798     0.07900
Br416      Br  0.19075565  0.83817903  0.90750458    -0.02700
C417        C  0.91858179  0.62457801  0.85299130    -0.09300
C418        C  0.92727196  0.66358672  0.86503802     0.06900
C419        C  0.89387508  0.66774970  0.87674251    -0.03100
C420        C  0.85245424  0.63395160  0.87465615    -0.07500
C421        C  0.84358750  0.59583726  0.86075730     0.06000
C422        C  0.87723407  0.59082746  0.85089015    -0.02500
Br423      Br  0.86839598  0.53839342  0.83467355    -0.02200
H424        H  0.94386248  0.62079720  0.84395134     0.09900
H425        H  0.82696609  0.63817761  0.88262840     0.07900
Br426      Br  0.90316314  0.71889702  0.89567484    -0.02700
C427        C  0.30526508  0.82681810  0.73495570    -0.09300
C428        C  0.27288783  0.79121861  0.72015933     0.06900
C429        C  0.24598785  0.75533885  0.73784512    -0.03100
C430        C  0.24818266  0.75733357  0.76983681    -0.07500
C431        C  0.27691621  0.79468107  0.78492795     0.06000
C432        C  0.30751211  0.82882116  0.76723711    -0.02500
Br433      Br  0.34931291  0.88072200  0.78549628    -0.02200
H434        H  0.32649263  0.85450157  0.72159675     0.09900
H435        H  0.22517410  0.73038982  0.78306581     0.07900
Br436      Br  0.20372106  0.70354483  0.71955144    -0.02700
C437        C  0.10019630  0.76943434  0.67058708    -0.09300
C438        C  0.08098899  0.75709400  0.64170145     0.06900
C439        C  0.10601364  0.75948902  0.61615371    -0.03100
C440        C  0.14834349  0.77111504  0.62041342    -0.07500
C441        C  0.16698114  0.78203434  0.64966727     0.06000
C442        C  0.14253252  0.78260605  0.67469242    -0.02500
Br443      Br  0.16498039  0.80426211  0.71482123    -0.02200
H444        H  0.08209003  0.76927934  0.69034218     0.09900
H445        H  0.16678920  0.77180414  0.60072179     0.07900
Br446      Br  0.08607219  0.75178322  0.57473445    -0.02700
C447        C  0.48015263  0.19075421  0.73613591    -0.09300
C448        C  0.48454576  0.22581192  0.71988275     0.06900
C449        C  0.49559389  0.26310948  0.73626506    -0.03100
C450        C  0.49744372  0.26335417  0.76837239    -0.07500
C451        C  0.48863535  0.22696156  0.78494757     0.06000
C452        C  0.48199380  0.19097843  0.76844862    -0.02500
Br453      Br  0.46942470  0.13941770  0.78854751    -0.02200
H454        H  0.47167810  0.16184176  0.72393002     0.09900
H455        H  0.50342057  0.29156091  0.78058686     0.07900
Br456      Br  0.50663129  0.31421259  0.71605698    -0.02700
C457        C  0.33235402  0.24677936  0.66819398    -0.09300
C458        C  0.31693994  0.24425154  0.63850519     0.06900
C459        C  0.33530088  0.23434549  0.61389422    -0.03100
C460        C  0.36866222  0.22714414  0.61937716    -0.07500
C461        C  0.38443653  0.22964933  0.64929525     0.06000
C462        C  0.36546154  0.23967968  0.67393954    -0.02500
Br463      Br  0.38020632  0.24233726  0.71662781    -0.02200
H464        H  0.31816033  0.25415047  0.68728421     0.09900
H465        H  0.38215056  0.21935900  0.60008251     0.07900
Br466      Br  0.31446068  0.22821889  0.57280959    -0.02700
C467        C  0.16168959  0.45196605  0.73095971    -0.09300
C468        C  0.20071560  0.46952857  0.71572921     0.06900
C469        C  0.23777478  0.48922463  0.73318641    -0.03100
C470        C  0.23546198  0.48774894  0.76527953    -0.07500
C471        C  0.19654516  0.46711418  0.78060273     0.06000
C472        C  0.15934994  0.45049052  0.76325075    -0.02500
Br473      Br  0.10484781  0.42071930  0.78230519    -0.02200
H474        H  0.13290736  0.43656283  0.71778041     0.09900
H475        H  0.26429157  0.50087579  0.77836652     0.07900
Br476      Br  0.29234526  0.51755697  0.71425875    -0.02700
C477        C  0.19531348  0.35185735  0.62334411    -0.09300
C478        C  0.22524390  0.38966021  0.63738281     0.06900
C479        C  0.26394250  0.39410821  0.64638285    -0.03100
C480        C  0.27116567  0.36046270  0.64279543    -0.07500
C481        C  0.24039588  0.32188350  0.63027382     0.06000
C482        C  0.20243405  0.31804066  0.61997311    -0.02500
Br483      Br  0.15925677  0.26735298  0.60119100    -0.02200
H484        H  0.16550696  0.34792676  0.61610738     0.09900
H485        H  0.30041659  0.36400615  0.65099199     0.07900
Br486      Br  0.30846867  0.44562717  0.66314613    -0.02700
C487        C  0.74829773  0.25607721  0.73535097    -0.09300
C488        C  0.78631984  0.27400942  0.71890800     0.06900
C489        C  0.82456562  0.29441655  0.73512040    -0.03100
C490        C  0.82409624  0.29400572  0.76738402    -0.07500
C491        C  0.78592650  0.27289341  0.78369189     0.06000
C492        C  0.74787164  0.25545600  0.76748182    -0.02500
Br493      Br  0.69452028  0.22820041  0.78832547    -0.02200
H494        H  0.71872975  0.24026324  0.72312543     0.09900
H495        H  0.85354924  0.30688020  0.77963629     0.07900
Br496      Br  0.87790068  0.31742068  0.71454794    -0.02700
C497        C  0.74459569  0.10447479  0.61263940    -0.09300
C498        C  0.74217291  0.08124039  0.63900949     0.06900
C499        C  0.74634272  0.09966290  0.66809072    -0.03100
C500        C  0.75477755  0.14097331  0.67047398    -0.07500
C501        C  0.75875433  0.16534660  0.64430493     0.06000
C502        C  0.75253327  0.14611439  0.61499798    -0.02500
Br503      Br  0.75230470  0.17355251  0.57751689    -0.02200
H504        H  0.74037039  0.09020530  0.59014976     0.09900
H505        H  0.75850940  0.15400753  0.69335543     0.07900
Br506      Br  0.73868335  0.06928278  0.70579646    -0.02700
C507        C  0.71674238  0.53531587  0.73388385    -0.09300
C508        C  0.73861596  0.51983152  0.71700482     0.06900
C509        C  0.75844670  0.50145221  0.73303016    -0.03100
C510        C  0.75897048  0.50173605  0.76523341    -0.07500
C511        C  0.73946416  0.51966132  0.78214069     0.06000
C512        C  0.71720207  0.53556271  0.76620188    -0.02500
Br513      Br  0.69189153  0.56315225  0.78714914    -0.02200
H514        H  0.70183259  0.55006813  0.72194241     0.09900
H515        H  0.77601405  0.48921638  0.77714930     0.07900
Br516      Br  0.78561139  0.47585777  0.71197673    -0.02700
C517        C  0.91515403  0.63015724  0.64317900    -0.09300
C518        C  0.92381039  0.67051081  0.63435383     0.06900
C519        C  0.89017616  0.67555237  0.62464375    -0.03100
C520        C  0.84880554  0.64154973  0.62648726    -0.07500
C521        C  0.84004772  0.60198446  0.63738649     0.06000
C522        C  0.87392019  0.59598453  0.64425184    -0.02500
Br523      Br  0.86557243  0.54150944  0.65426996    -0.02200
H524        H  0.94072384  0.62524890  0.65041898     0.09900
H525        H  0.82296059  0.64668755  0.62050900     0.07900
Br526      Br  0.89900367  0.72788142  0.60823205    -0.02700
C527        C  0.54764206  0.71653163  0.73266066    -0.09300
C528        C  0.52693114  0.73443013  0.71743295     0.06900
C529        C  0.50514116  0.74954143  0.73496236    -0.03100
C530        C  0.50664287  0.74926918  0.76710047    -0.07500
C531        C  0.52944123  0.73379375  0.78235012     0.06000
C532        C  0.54925075  0.71635127  0.76493094    -0.02500
Br533      Br  0.58345844  0.69726153  0.78393694    -0.02200
H534        H  0.56513552  0.70546454  0.71945663     0.09900
H535        H  0.49137155  0.76283674  0.78024879     0.07900
Br536      Br  0.47382876  0.77192898  0.71593703    -0.02700
C537        C  0.62565681  0.91494171  0.64206952    -0.09300
C538        C  0.66598259  0.92461134  0.63233679     0.06900
C539        C  0.67240284  0.89113609  0.62400986    -0.03100
C540        C  0.63950390  0.84925474  0.62677270    -0.07500
C541        C  0.59992164  0.83967134  0.63798014     0.06000
C542        C  0.59282753  0.87298624  0.64490857    -0.02500
Br543      Br  0.53876929  0.86276473  0.65807998    -0.02200
H544        H  0.61997482  0.93997797  0.64876393     0.09900
H545        H  0.64544671  0.82398757  0.62136790     0.07900
Br546      Br  0.72526216  0.90039018  0.60858297    -0.02700
C547        C  0.54277021  0.66024489  0.56467370    -0.09300
C548        C  0.50726105  0.62014510  0.56965988     0.06900
C549        C  0.48042051  0.61486571  0.59469498    -0.03100
C550        C  0.49055246  0.64873639  0.61470085    -0.07500
C551        C  0.52686717  0.68858447  0.61023067     0.06000
C552        C  0.55265831  0.69419654  0.58431365    -0.02500
Br553      Br  0.60373073  0.74600547  0.57503031    -0.02200
H554        H  0.56371793  0.66510950  0.54553078     0.09900
H555        H  0.46998057  0.64366944  0.63412673     0.07900
Br556      Br  0.43116287  0.56170456  0.60422034    -0.02700
C557        C  0.65794381  0.54923964  0.57224665    -0.09300
C558        C  0.62082040  0.50949526  0.57265270     0.06900
C559        C  0.61817998  0.47874595  0.59361731    -0.03100
C560        C  0.65170654  0.48863386  0.61368033    -0.07500
C561        C  0.68858109  0.52855080  0.61324432     0.06000
C562        C  0.69136572  0.55894408  0.59203026    -0.02500
Br563      Br  0.73836889  0.61559352  0.59003082    -0.02200
H564        H  0.66103840  0.57353694  0.55655236     0.09900
H565        H  0.64898474  0.46478102  0.62967226     0.07900
Br566      Br  0.56957314  0.42326951  0.59718208    -0.02700
C567        C  0.34421308  0.36075480  0.55915589    -0.09300
C568        C  0.38429682  0.38366485  0.57208187     0.06900
C569        C  0.39108371  0.37412153  0.60208543    -0.03100
C570        C  0.35758076  0.34209150  0.61882247    -0.07500
C571        C  0.31745766  0.31904702  0.60578620     0.06000
C572        C  0.31105238  0.32824719  0.57557111    -0.02500
Br573      Br  0.25845455  0.29530872  0.55494695    -0.02200
H574        H  0.33896986  0.36748906  0.53587003     0.09900
H575        H  0.36262694  0.33540188  0.64214077     0.07900
Br576      Br  0.44488439  0.40521408  0.62147861    -0.02700
C577        C  0.15000182  0.33726878  0.11548308    -0.09300
C578        C  0.16030101  0.37380204  0.13232417     0.06900
C579        C  0.12781783  0.37994132  0.14322517    -0.03100
C580        C  0.08593796  0.34834631  0.13944752    -0.07500
C581        C  0.07550737  0.31025663  0.12482755     0.06000
C582        C  0.10790816  0.30541752  0.11182146    -0.02500
Br583      Br  0.09643663  0.25558206  0.08970377    -0.02200
H584        H  0.17472887  0.33223845  0.10692258     0.09900
H585        H  0.06160405  0.35263607  0.14973076     0.07900
Br586      Br  0.13910023  0.43035516  0.16451110    -0.02700
C587        C  0.35125734  0.10313026  0.10919081    -0.09300
C588        C  0.32195021  0.08229043  0.13299782     0.06900
C589        C  0.32851964  0.10265911  0.16169833    -0.03100
C590        C  0.36309335  0.14304509  0.16590159    -0.07500
C591        C  0.39227182  0.16431972  0.14213308     0.06000
C592        C  0.38631120  0.14368076  0.11355158    -0.02500
Br593      Br  0.42621610  0.16777155  0.08042933    -0.02200
H594        H  0.34701435  0.08776110  0.08715219     0.09900
H595        H  0.36708540  0.15792585  0.18813233     0.07900
Br596      Br  0.29335464  0.07605159  0.19706272    -0.02700
C597        C  0.22439188  0.89820247  0.10340489    -0.09300
C598        C  0.23850327  0.92688128  0.12792168     0.06900
C599        C  0.24169413  0.91299271  0.15725249    -0.03100
C600        C  0.23173222  0.87143560  0.16172031    -0.07500
C601        C  0.21738665  0.84182458  0.13749321     0.06000
C602        C  0.21354362  0.85587913  0.10786325    -0.02500
Br603      Br  0.19293202  0.81987751  0.07250427    -0.02200
H604        H  0.22116244  0.90859966  0.08081029     0.09900
H605        H  0.23479957  0.86241585  0.18482176     0.07900
Br606      Br  0.25816405  0.94934931  0.19253011    -0.02700
C607        C  0.77476463  0.66986366  0.10667887    -0.09300
C608        C  0.76843419  0.68949332  0.13214951     0.06900
C609        C  0.76947238  0.67511739  0.16185213    -0.03100
C610        C  0.77762031  0.64239415  0.16581733    -0.07500
C611        C  0.78472956  0.62258330  0.14060227     0.06000
C612        C  0.78302684  0.63674761  0.11056200    -0.02500
Br613      Br  0.79042851  0.61225704  0.07378838    -0.02200
H614        H  0.77357089  0.68056349  0.08369298     0.09900
H615        H  0.77839253  0.63260586  0.18917041     0.07900
Br616      Br  0.75814972  0.69783195  0.19806475    -0.02700
C617        C  0.86232789  0.22603115  0.17122369    -0.09300
C618        C  0.84119147  0.23059603  0.14607011     0.06900
C619        C  0.86079661  0.23945212  0.11679041    -0.03100
C620        C  0.90023659  0.24289644  0.11328405    -0.07500
C621        C  0.92112290  0.23824556  0.13853889     0.06000
C622        C  0.90175356  0.22992167  0.16778755    -0.02500
Br623      Br  0.92837383  0.22620409  0.20453756    -0.02200
H624        H  0.84812387  0.21930022  0.19393763     0.09900
H625        H  0.91482425  0.24960441  0.09071077     0.07900
Br626      Br  0.83708703  0.25005001  0.08113039    -0.02700
C627        C  0.65262408  0.73619760  0.13700574    -0.09300
C628        C  0.69077731  0.76609837  0.12321938     0.06900
C629        C  0.69514820  0.80442199  0.11266596    -0.03100
C630        C  0.66252636  0.81292182  0.11727435    -0.07500
C631        C  0.62537710  0.78403511  0.13273961     0.06000
C632        C  0.62016361  0.74480652  0.14182810    -0.02500
Br633      Br  0.56943084  0.70174048  0.16102237    -0.02200
H634        H  0.64871574  0.70677870  0.14557043     0.09900
H635        H  0.66715063  0.84317936  0.11009373     0.07900
Br636      Br  0.74520173  0.84658084  0.09222739    -0.02700
C637        C  0.47653055  0.29622030  0.26818046    -0.09300
C638        C  0.48590160  0.26837575  0.28349330     0.06900
C639        C  0.49730817  0.24348077  0.26591839    -0.03100
C640        C  0.49466155  0.24312470  0.23386210    -0.07500
C641        C  0.48140578  0.26786248  0.21857351     0.06000
C642        C  0.47430247  0.29621818  0.23588546    -0.02500
Br643      Br  0.45592255  0.33124957  0.21711423    -0.02200
H644        H  0.46732932  0.31529087  0.28134527     0.09900
H645        H  0.50101692  0.22179128  0.22086627     0.07900
Br646      Br  0.51432471  0.20740449  0.28483906    -0.02700
C647        C  0.50477115  0.35259817  0.38250592    -0.09300
C648        C  0.47796143  0.31008585  0.39104904     0.06900
C649        C  0.46333006  0.30170524  0.42205033    -0.03100
C650        C  0.47264712  0.33518754  0.44225854    -0.07500
C651        C  0.49683192  0.37742214  0.43274621     0.06000
C652        C  0.51444229  0.38581676  0.40285427    -0.02500
Br653      Br  0.55325038  0.44200180  0.38857387    -0.02200
H654        H  0.51808483  0.36051418  0.35954250     0.09900
H655        H  0.45958684  0.32804139  0.46533894     0.07900
Br656      Br  0.43087877  0.24607915  0.43933422    -0.02700
C657        C  0.28254787  0.46121478  0.23503436    -0.09300
C658        C  0.25477354  0.42393047  0.21934240     0.06900
C659        C  0.22852770  0.38721102  0.23668277    -0.03100
C660        C  0.22803145  0.38909047  0.26874395    -0.07500
C661        C  0.25366502  0.42690184  0.28449903     0.06000
C662        C  0.28215175  0.46295429  0.26740068    -0.02500
Br663      Br  0.31789707  0.51620038  0.28678078    -0.02200
H664        H  0.30290105  0.48965708  0.22209932     0.09900
H665        H  0.20669152  0.36079215  0.28149632     0.07900
Br666      Br  0.19270345  0.33315229  0.21803994    -0.02700
C667        C  0.34797930  0.48156510  0.38057651    -0.09300
C668        C  0.30656272  0.45718081  0.39194076     0.06900
C669        C  0.30109557  0.44872995  0.42412133    -0.03100
C670        C  0.33620463  0.46159429  0.44300963    -0.07500
C671        C  0.37726461  0.48344243  0.43108076     0.06000
C672        C  0.38291602  0.49493494  0.39967939    -0.02500
Br673      Br  0.43745992  0.53049062  0.38161163    -0.02200
H674        H  0.35355254  0.49025139  0.35648083     0.09900
H675        H  0.33119765  0.45311054  0.46717244     0.07900
Br676      Br  0.24754426  0.41932779  0.44488568    -0.02700
C677        C  0.33036298  0.09636357  0.33312927    -0.09300
C678        C  0.31815829  0.07916746  0.36264810     0.06900
C679        C  0.34031888  0.10406476  0.38818595    -0.03100
C680        C  0.37482052  0.14492704  0.38364128    -0.07500
C681        C  0.38760042  0.16208417  0.35391298     0.06000
C682        C  0.36434826  0.13703360  0.32840955    -0.02500
Br683      Br  0.37440867  0.15566456  0.28619672    -0.02200
H684        H  0.31320599  0.07771951  0.31335134     0.09900
H685        H  0.39157927  0.16338685  0.40353077     0.07900
Br686      Br  0.32300597  0.08563344  0.42967463    -0.02700
C687        C  0.23848006  0.76529934  0.23210612    -0.09300
C688        C  0.19992815  0.74093206  0.21725456     0.06900
C689        C  0.16399760  0.71360227  0.23482778    -0.03100
C690        C  0.16656188  0.71385181  0.26698882    -0.07500
C691        C  0.20462863  0.74067981  0.28191790     0.06000
C692        C  0.24117793  0.76476696  0.26409460    -0.02500
Br693      Br  0.29565182  0.79676745  0.28216802    -0.02200
H694        H  0.26650721  0.78563034  0.21875577     0.09900
H695        H  0.13813998  0.69515601  0.28036053     0.07900
Br696      Br  0.10985869  0.67906740  0.21655176    -0.02700
C697        C  0.26879868  0.91422614  0.35715354    -0.09300
C698        C  0.23782351  0.92234602  0.36811730     0.06900
C699        C  0.19890180  0.88794843  0.37800283    -0.03100
C700        C  0.19118631  0.84649762  0.37531836    -0.07500
C701        C  0.22185971  0.83867730  0.36299467     0.06000
C702        C  0.26148931  0.87323598  0.35509477    -0.02500
Br703      Br  0.30753767  0.86673526  0.34209317    -0.02200
H704        H  0.29862919  0.93974442  0.34907483     0.09900
H705        H  0.16059068  0.82030036  0.38170751     0.07900
Br706      Br  0.15542328  0.89565199  0.39546195    -0.02700
C707        C  0.82223498  0.53397098  0.26852788    -0.09300
C708        C  0.78703825  0.53132887  0.28340269     0.06900
C709        C  0.75245034  0.52446428  0.26539512    -0.03100
C710        C  0.75543144  0.52503363  0.23334872    -0.07500
C711        C  0.79229277  0.53205691  0.21845592     0.06000
C712        C  0.82520794  0.53448303  0.23632973    -0.02500
Br713      Br  0.87718061  0.54442830  0.21856773    -0.02200
H714        H  0.84915359  0.53931957  0.28179328     0.09900
H715        H  0.72948738  0.52223928  0.21992421     0.07900
Br716      Br  0.70085305  0.51594188  0.28306049    -0.02700
C717        C  0.66727729  0.68853651  0.42420218    -0.09300
C718        C  0.67346998  0.68034907  0.39384640     0.06900
C719        C  0.64805082  0.63983841  0.38157203    -0.03100
C720        C  0.61750392  0.60777667  0.40017220    -0.07500
C721        C  0.61210334  0.61546385  0.43114221     0.06000
C722        C  0.63746349  0.65669579  0.44306108    -0.02500
Br723      Br  0.63301150  0.67314568  0.48430079    -0.02200
H724        H  0.68647770  0.72006660  0.43333870     0.09900
H725        H  0.59809251  0.57669390  0.39038338     0.07900
Br726      Br  0.65216552  0.62784793  0.33920740    -0.02700
C727        C  0.76463496  0.67951096  0.33605972    -0.09300
C728        C  0.75504600  0.68774130  0.36550140     0.06900
C729        C  0.75874206  0.66581816  0.39082736    -0.03100
C730        C  0.77013167  0.63503916  0.38600284    -0.07500
C731        C  0.77855669  0.62600738  0.35623264     0.06000
C732        C  0.77656492  0.64958476  0.33117297    -0.02500
Br733      Br  0.79238709  0.64550627  0.28958693    -0.02200
H734        H  0.76296357  0.69680964  0.31646846     0.09900
H735        H  0.77227903  0.61803851  0.40557931     0.07900
Br736      Br  0.75197385  0.67866589  0.43242280    -0.02700
C737        C  0.76189792  0.25714325  0.26965540    -0.09300
C738        C  0.73568045  0.21914125  0.28516025     0.06900
C739        C  0.70801195  0.18306137  0.26799468    -0.03100
C740        C  0.70947773  0.18486144  0.23574375    -0.07500
C741        C  0.73856085  0.22203552  0.22036354     0.06000
C742        C  0.76344350  0.25885870  0.23757817    -0.02500
Br743      Br  0.80156657  0.31187567  0.21833800    -0.02200
H744        H  0.78300452  0.28516480  0.28258653     0.09900
H745        H  0.69044115  0.15622905  0.22276370     0.07900
Br746      Br  0.67229949  0.12919724  0.28700854    -0.02700
C747        C  0.54747417  0.83303092  0.26525649    -0.09300
C748        C  0.53117723  0.79308777  0.27895767     0.06900
C749        C  0.52011185  0.75794406  0.25984363    -0.03100
C750        C  0.52743574  0.76347583  0.22808890    -0.07500
C751        C  0.54557907  0.80364509  0.21459925     0.06000
C752        C  0.55510342  0.83860009  0.23344453    -0.02500
Br753      Br  0.58372187  0.89522023  0.21773853    -0.02200
H754        H  0.55705786  0.86051882  0.27957501     0.09900
H755        H  0.51974873  0.73628999  0.21389152     0.07900
Br756      Br  0.49485552  0.70156664  0.27571343    -0.02700
C757        C  0.62832248  0.72234729  0.35894152    -0.09300
C758        C  0.66700327  0.75510551  0.36977499     0.06900
C759        C  0.66952424  0.79292566  0.37962999    -0.03100
C760        C  0.63469679  0.79824798  0.37669427    -0.07500
C761        C  0.59691357  0.76636146  0.36408544     0.06000
C762        C  0.59341916  0.72748308  0.35641061    -0.02500
Br763      Br  0.54154275  0.68011301  0.34283885    -0.02200
H764        H  0.62546130  0.69307514  0.35121048     0.09900
H765        H  0.63786258  0.82824901  0.38293252     0.07900
Br766      Br  0.71950667  0.83841881  0.39734709    -0.02700
C767        C  0.14428629  0.34045007  0.38884476    -0.09300
C768        C  0.15412874  0.37507185  0.36973729     0.06900
C769        C  0.12125591  0.37936012  0.35748373    -0.03100
C770        C  0.07952091  0.34781268  0.36251663    -0.07500
C771        C  0.06965769  0.31158988  0.37964133     0.06000
C772        C  0.10237905  0.30859836  0.39365256    -0.02500
Br773      Br  0.09149773  0.26129031  0.41883824    -0.02200
H774        H  0.16926821  0.33688986  0.39856357     0.09900
H775        H  0.05479463  0.35057804  0.35151320     0.07900
Br776      Br  0.13169244  0.42735987  0.33322665    -0.02700
C777        C  0.89287006  0.24004945  0.39468623    -0.09300
C778        C  0.91551479  0.23841596  0.36915785     0.06900
C779        C  0.89818544  0.23323561  0.33965287    -0.03100
C780        C  0.85824420  0.22783532  0.33619672    -0.07500
C781        C  0.83475833  0.22855733  0.36162498     0.06000
C782        C  0.85297698  0.23559008  0.39117820    -0.02500
Br783      Br  0.82691147  0.24262779  0.42721865    -0.02200
H784        H  0.90645750  0.24523303  0.41741890     0.09900
H785        H  0.84571418  0.22328770  0.31314802     0.07900
Br786      Br  0.92885929  0.23664328  0.30283186    -0.02700
C787        C  0.13264437  0.51437807  0.58650684    -0.09300
C788        C  0.10341404  0.48165561  0.56757169     0.06900
C789        C  0.10129138  0.44205411  0.56887161    -0.03100
C790        C  0.12651093  0.43567759  0.58950680    -0.07500
C791        C  0.15418765  0.46775101  0.60933636     0.06000
C792        C  0.15779729  0.50777030  0.60722728    -0.02500
Br793      Br  0.19787857  0.55512864  0.63094248    -0.02200
H794        H  0.13547505  0.54515244  0.58566949     0.09900
H795        H  0.12380317  0.40494738  0.59045861     0.07900
Br796      Br  0.06577956  0.39504962  0.54284047    -0.02700
C797        C  0.85644902  0.38724995  0.59072448    -0.09300
C798        C  0.87544955  0.37841725  0.56608873     0.06900
C799        C  0.86698045  0.33664584  0.56229880    -0.03100
C800        C  0.84280250  0.30573480  0.58417904    -0.07500
C801        C  0.82616301  0.31511816  0.61012980     0.06000
C802        C  0.83189437  0.35619617  0.61257244    -0.02500
Br803      Br  0.80650867  0.37234307  0.64440738    -0.02200
H804        H  0.86194287  0.41890992  0.59366912     0.09900
H805        H  0.83801910  0.27436460  0.58116374     0.07900
Br806      Br  0.88671993  0.31932505  0.52736134    -0.02700
C807        C  0.10257032  0.61171385  0.39735475    -0.09300
C808        C  0.10832287  0.61874869  0.42925530     0.06900
C809        C  0.13816258  0.65980675  0.43943015    -0.03100
C810        C  0.15958117  0.69249416  0.41794017    -0.07500
C811        C  0.15242332  0.68559933  0.38613727     0.06000
C812        C  0.12369607  0.64422254  0.37598050    -0.02500
Br813      Br  0.10822609  0.62924331  0.33369155    -0.02200
H814        H  0.08015449  0.58068701  0.38868975     0.09900
H815        H  0.18194880  0.72373275  0.42628405     0.07900
Br816      Br  0.15084286  0.67458986  0.48201560    -0.02700
C817        C  0.90025757  0.52449295  0.39692475    -0.09300
C818        C  0.89316420  0.52382209  0.42883236     0.06900
C819        C  0.86463437  0.53637931  0.43925558    -0.03100
C820        C  0.84322397  0.54735781  0.41791453    -0.07500
C821        C  0.84986791  0.54697426  0.38605335     0.06000
C822        C  0.87984131  0.53649149  0.37582841    -0.02500
Br823      Br  0.89798576  0.54143105  0.33376534    -0.02200
H824        H  0.92280661  0.51651075  0.38801712     0.09900
H825        H  0.82091591  0.55596137  0.42635797     0.07900
Br826      Br  0.85388095  0.54084243  0.48196755    -0.02700
C827        C  0.98199966  0.34088179  0.38351370    -0.09300
C828        C  0.99083799  0.31342639  0.39966745     0.06900
C829        C  0.99806952  0.31859032  0.43137522    -0.03100
C830        C  0.99745167  0.35156556  0.44651925    -0.07500
C831        C  0.98939622  0.38004628  0.43060418     0.06000
C832        C  0.98132406  0.37421476  0.39857878    -0.02500
Br833      Br  0.96798690  0.40908494  0.37389834    -0.02200
H834        H  0.97576197  0.33629806  0.35907690     0.09900
H835        H  0.00341045  0.35476581  0.47102383     0.07900
Br836      Br  0.00679378  0.27987918  0.45518287    -0.02700
C837        C  0.02095848  0.62153394  0.60108239    -0.09300
C838        C  0.00238532  0.61423043  0.57195325     0.06900
C839        C  0.98497215  0.63846953  0.56204670    -0.03100
C840        C  0.98630149  0.66942796  0.58126655    -0.07500
C841        C  0.00469345  0.67678893  0.61044482     0.06000
C842        C  0.02151733  0.65210333  0.62061198    -0.02500
Br843      Br  0.04129819  0.65581280  0.66177313    -0.02200
H844        H  0.03364691  0.60237276  0.60905490     0.09900
H845        H  0.97300743  0.68813097  0.57348532     0.07900
Br846      Br  0.96057465  0.63178718  0.52204605    -0.02700
C847        C  0.86104371  0.37945655  0.91439144    -0.09300
C848        C  0.88675568  0.37268157  0.93446948     0.06900
C849        C  0.88501822  0.33328004  0.93335055    -0.03100
C850        C  0.85998695  0.30318116  0.91146519    -0.07500
C851        C  0.83592966  0.31082729  0.89042090     0.06000
C852        C  0.83574417  0.34908511  0.89263869    -0.02500
Br853      Br  0.80039529  0.36132493  0.86776650    -0.02200
H854        H  0.86117754  0.40896363  0.91511822     0.09900
H855        H  0.86003273  0.27376779  0.91057780     0.07900
Br856      Br  0.91478460  0.31717574  0.96123298    -0.02700
C857        C  0.13542952  0.51347095  0.91285054    -0.09300
C858        C  0.11189796  0.48307841  0.93545132     0.06900
C859        C  0.11394438  0.44565979  0.93631275    -0.03100
C860        C  0.13689556  0.43836040  0.91389247    -0.07500
C861        C  0.15830057  0.46756015  0.89019318     0.06000
C862        C  0.15845909  0.50609279  0.89040275    -0.02500
Br863      Br  0.19069423  0.55059722  0.86145964    -0.02200
H864        H  0.13490422  0.54263307  0.91199878     0.09900
H865        H  0.13702699  0.40898928  0.91458311     0.07900
Br866      Br  0.08698648  0.40331113  0.96777244    -0.02700
C867        C  0.86000699  0.55400339  0.08540291    -0.09300
C868        C  0.84173240  0.52958406  0.11210626     0.06900
C869        C  0.84485493  0.49299578  0.11639611    -0.03100
C870        C  0.86806965  0.48362851  0.09551815    -0.07500
C871        C  0.88733508  0.50895718  0.06957706     0.06000
C872        C  0.88239130  0.54397074  0.06427076    -0.02500
Br873      Br  0.90889856  0.58164428  0.03013339    -0.02200
H874        H  0.85822307  0.58206924  0.08128666     0.09900
H875        H  0.87127786  0.45634834  0.09964646     0.07900
Br876      Br  0.81746112  0.45311777  0.14927059    -0.02700
C877        C  0.14275602  0.65191997  0.06399533    -0.09300
C878        C  0.10514568  0.61703677  0.07507042     0.06900
C879        C  0.09287270  0.61819642  0.10596662    -0.03100
C880        C  0.11700583  0.65368382  0.12407209    -0.07500
C881        C  0.15363233  0.68872439  0.11271972     0.06000
C882        C  0.16704853  0.68736412  0.08256414    -0.02500
Br883      Br  0.21955991  0.73157117  0.06647577    -0.02200
H884        H  0.15346403  0.65174182  0.04077246     0.09900
H885        H  0.10653284  0.65410714  0.14733686     0.07900
Br886      Br  0.04328198  0.57394136  0.12594334    -0.02700
C887        C  0.98659287  0.33956033  0.12155264    -0.09300
C888        C  0.99691184  0.31256092  0.10614439     0.06900
C889        C  0.00682269  0.31857975  0.07468426    -0.03100
C890        C  0.00675649  0.35148281  0.05906221    -0.07500
C891        C  0.99670595  0.37911013  0.07417072     0.06000
C892        C  0.98659954  0.37290048  0.10599474    -0.02500
Br893      Br  0.97161770  0.40741378  0.12979049    -0.02200
H894        H  0.97878452  0.33469134  0.14583045     0.09900
H895        H  0.01455851  0.35520279  0.03476734     0.07900
Br896      Br  0.01852471  0.28124115  0.05160615    -0.02700
C897        C  0.01603677  0.63985357  0.87922107    -0.09300
C898        C  0.00708258  0.66973208  0.89141034     0.06900
C899        C  0.99778870  0.66858402  0.92292762    -0.03100
C900        C  0.99697704  0.63742646  0.94171317    -0.07500
C901        C  0.00606058  0.60770730  0.92945964     0.06000
C902        C  0.01591816  0.60908345  0.89807710    -0.02500
Br903      Br  0.02768890  0.56858380  0.87995165    -0.02200
H904        H  0.02197643  0.63966017  0.85494390     0.09900
H905        H  0.98948844  0.63650647  0.96594992     0.07900
Br906      Br  0.98667111  0.70938721  0.94115114    -0.02700
C907        C  0.38728767  0.87639302  0.59380343    -0.09300
C908        C  0.37562803  0.88730456  0.56631019     0.06900
C909        C  0.33284700  0.87305692  0.56125023    -0.03100
C910        C  0.30303900  0.85065512  0.58425943    -0.07500
C911        C  0.31471916  0.84178756  0.61285479     0.06000
C912        C  0.35769997  0.85406838  0.61702133    -0.02500
Br913      Br  0.38011921  0.84328371  0.65345978    -0.02200
H914        H  0.42013179  0.88710045  0.59790273     0.09900
H915        H  0.27052840  0.84082357  0.57973330     0.07900
Br916      Br  0.31317604  0.88227568  0.52295008    -0.02700
C917        C  0.51085325  0.14061433  0.59036138    -0.09300
C918        C  0.47736234  0.11144307  0.57196017     0.06900
C919        C  0.43790425  0.10898716  0.57541196    -0.03100
C920        C  0.43276837  0.13434549  0.59705439    -0.07500
C921        C  0.46593173  0.16267711  0.61590622     0.06000
C922        C  0.50558115  0.16598246  0.61203579    -0.02500
Br923      Br  0.55458883  0.20603585  0.63422853    -0.02200
H924        H  0.54148108  0.14357811  0.58813489     0.09900
H925        H  0.40217164  0.13145814  0.59934937     0.07900
Br926      Br  0.38935387  0.07296532  0.55105425    -0.02700
C927        C  0.49871723  0.89427074  0.39432057    -0.09300
C928        C  0.50818558  0.89558471  0.42577981     0.06900
C929        C  0.52428361  0.87002802  0.43597210    -0.03100
C930        C  0.53098721  0.84494329  0.41498389    -0.07500
C931        C  0.52241105  0.84420088  0.38332186     0.06000
C932        C  0.50538856  0.86917070  0.37325122    -0.02500
Br933      Br  0.49096441  0.87227600  0.33128661    -0.02200
H934        H  0.48612331  0.91327639  0.38582464     0.09900
H935        H  0.54377920  0.82625387  0.42373456     0.07900
Br936      Br  0.54062895  0.86933479  0.47776750    -0.02700
C937        C  0.69313776  0.15963176  0.42039426    -0.09300
C938        C  0.68494589  0.17137416  0.39152934     0.06900
C939        C  0.64286586  0.16037872  0.38505482    -0.03100
C940        C  0.61060554  0.13580065  0.40596873    -0.07500
C941        C  0.61878850  0.12257656  0.43394195     0.06000
C942        C  0.66073604  0.13569607  0.44148547    -0.02500
Br943      Br  0.67540880  0.11860405  0.47888542    -0.02200
H944        H  0.72480686  0.16781661  0.42639096     0.09900
H945        H  0.57853044  0.12644736  0.40014046     0.07900
Br946      Br  0.62554856  0.17726762  0.34873642    -0.02700
C947        C  0.38723080  0.01338996  0.39691074    -0.09300
C948        C  0.37980956  0.00269208  0.42835701     0.06900
C949        C  0.33969153  0.99071424  0.44097053    -0.03100
C950        C  0.30861283  0.98928840  0.42218928    -0.07500
C951        C  0.31673823  0.00143424  0.39138041     0.06000
C952        C  0.35619868  0.01321342  0.37851181    -0.02500
Br953      Br  0.36807349  0.02661889  0.33568579    -0.02200
H954        H  0.41737227  0.02228645  0.38655958     0.09900
H955        H  0.27799592  0.97997469  0.43186835     0.07900
Br956      Br  0.32379315  0.97617926  0.48337181    -0.02700
C957        C  0.62850837  0.98865372  0.56002625    -0.09300
C958        C  0.60607000  0.00710118  0.57149305     0.06900
C959        C  0.61510414  0.02517823  0.60108360    -0.03100
C960        C  0.64545512  0.02327423  0.61903736    -0.07500
C961        C  0.66784460  0.00470119  0.60747361     0.06000
C962        C  0.65979254  0.98817079  0.57746470    -0.02500
Br963      Br  0.69293131  0.96774035  0.55832238    -0.02200
H964        H  0.62249405  0.97564889  0.53699086     0.09900
H965        H  0.65169414  0.03628380  0.64204525     0.07900
Br966      Br  0.58592927  0.05127093  0.61833741    -0.02700
C967        C  0.62420079  0.47699938  0.91218924    -0.09300
C968        C  0.62973276  0.51032880  0.93132231     0.06900
C969        C  0.66898891  0.54865191  0.93025597    -0.03100
C970        C  0.70006887  0.55354293  0.90931669    -0.07500
C971        C  0.69369216  0.52103474  0.88919767     0.06000
C972        C  0.65571405  0.48198481  0.89139521    -0.02500
Br973      Br  0.64614447  0.43369641  0.86795249    -0.02200
H974        H  0.59497611  0.44702924  0.91301985     0.09900
H975        H  0.72940127  0.58344374  0.90848671     0.07900
Br976      Br  0.68384646  0.59566685  0.95721102    -0.02700
C977        C  0.48806290  0.61560213  0.90926502    -0.09300
C978        C  0.51663593  0.62464966  0.93329369     0.06900
C979        C  0.55096964  0.66622481  0.93615529    -0.03100
C980        C  0.55706483  0.69704276  0.91453643    -0.07500
C981        C  0.52969760  0.68766018  0.88953891     0.06000
C982        C  0.49424554  0.64642135  0.88747249    -0.02500
Br983      Br  0.45213038  0.62992789  0.85629539    -0.02200
H984        H  0.46134629  0.58396023  0.90684985     0.09900
H985        H  0.58406482  0.72846990  0.91706299     0.07900
Br986      Br  0.59011386  0.68346742  0.96959663    -0.02700
C987        C  0.52322917  0.38679527  0.09361689    -0.09300
C988        C  0.49657576  0.37855919  0.06847910     0.06900
C989        C  0.46252705  0.33729566  0.06420747    -0.03100
C990        C  0.45499189  0.30557036  0.08547176    -0.07500
C991        C  0.48089446  0.31387095  0.11133272     0.06000
C992        C  0.51626218  0.35500899  0.11464793    -0.02500
Br993      Br  0.55768619  0.37037909  0.14626080    -0.02200
H994        H  0.54979209  0.41833050  0.09691351     0.09900
H995        H  0.42772346  0.27452191  0.08218214     0.07900
Br996      Br  0.42296393  0.32331678  0.03142082    -0.02700
C997        C  0.35459002  0.47309512  0.12539321    -0.09300
C998        C  0.31417389  0.45715552  0.11304022     0.06900
C999        C  0.31079849  0.45853832  0.08054164    -0.03100
C1000       C  0.34652444  0.47248490  0.06172264    -0.07500
C1001       C  0.38648853  0.48613397  0.07412765     0.06000
C1002       C  0.39032308  0.48778699  0.10661258    -0.02500
Br1003     Br  0.44310224  0.51043967  0.12766039    -0.02200
H1004       H  0.35872803  0.47382591  0.15006961     0.09900
H1005       H  0.34266267  0.47168916  0.03700275     0.07900
Br1006     Br  0.25932414  0.44297260  0.05938516    -0.02700
C1007       C  0.35144219  0.36975780  0.88211235    -0.09300
C1008       C  0.32820621  0.32816733  0.89311383     0.06900
C1009       C  0.33734158  0.31844119  0.92234440    -0.03100
C1010       C  0.37017668  0.34971675  0.93957680    -0.07500
C1011       C  0.39336126  0.39121994  0.92858574     0.06000
C1012       C  0.38357240  0.40136057  0.89976956    -0.02500
Br1013     Br  0.41457599  0.45730430  0.88300135    -0.02200
H1014       H  0.34516493  0.37741989  0.85947377     0.09900
H1015       H  0.37695943  0.34186409  0.96202215     0.07900
Br1016     Br  0.30430900  0.26356444  0.94046610    -0.02700
C1017       C  0.65374604  0.65691340  0.05417234    -0.09300
C1018       C  0.62720238  0.61818230  0.06901131     0.06900
C1019       C  0.63499474  0.61357480  0.10026161    -0.03100
C1020       C  0.66725906  0.64789122  0.11605376    -0.07500
C1021       C  0.69238729  0.68665025  0.10122125     0.06000
C1022       C  0.68621688  0.69064458  0.06989712    -0.02500
Br1023     Br  0.72313371  0.74097976  0.04732095    -0.02200
H1024       H  0.64936252  0.66121446  0.03011010     0.09900
H1025       H  0.67289370  0.64445989  0.14001017     0.07900
Br1026     Br  0.60498008  0.56121000  0.12241941    -0.02700
C1027       C  0.52743762  0.14798095  0.91127158    -0.09300
C1028       C  0.50007271  0.12965456  0.93645028     0.06900
C1029       C  0.46698249  0.13775819  0.94055051    -0.03100
C1030       C  0.46055590  0.16201287  0.91882230    -0.07500
C1031       C  0.48691539  0.17920733  0.89277604     0.06000
C1032       C  0.52179452  0.17321972  0.88990472    -0.02500
Br1033     Br  0.56424211  0.19976042  0.85853875    -0.02200
H1034       H  0.55341518  0.14247421  0.90815040     0.09900
H1035       H  0.43380890  0.16625141  0.92198587     0.07900
Br1036     Br  0.42734852  0.11339781  0.97388512    -0.02700
C1037       C  0.36222617  0.87470188  0.87981704    -0.09300
C1038       C  0.32127721  0.84789934  0.89109433     0.06900
C1039       C  0.31482890  0.84544042  0.92339674    -0.03100
C1040       C  0.34817195  0.87144392  0.94304972    -0.07500
C1041       C  0.38854722  0.89968786  0.93143007     0.06000
C1042       C  0.39556031  0.89991086  0.89936514    -0.02500
Br1043     Br  0.45003612  0.93232871  0.88022337    -0.02200
H1044       H  0.36867282  0.87656566  0.85536789     0.09900
H1045       H  0.34223738  0.86996558  0.96758638     0.07900
Br1046     Br  0.26245966  0.80600668  0.94274016    -0.02700
C1047       C  0.66413609  0.12202563  0.07126838    -0.09300
C1048       C  0.62681617  0.12346883  0.07285327     0.06900
C1049       C  0.62338330  0.14901674  0.09570334    -0.03100
C1050       C  0.65668662  0.17179405  0.11618138    -0.07500
C1051       C  0.69357600  0.16949772  0.11479525     0.06000
C1052       C  0.69682493  0.14388891  0.09199196    -0.02500
Br1053     Br  0.74256181  0.13309018  0.08920885    -0.02200
H1054       H  0.66764537  0.10247530  0.05424762     0.09900
H1055       H  0.65344619  0.19106613  0.13359646     0.07900
Br1056     Br  0.57367038  0.15252719  0.10182537    -0.02700
C1057       C  0.56022625  0.90295198  0.06479857    -0.09300
C1058       C  0.52346523  0.90438134  0.07068517     0.06900
C1059       C  0.49871561  0.88229299  0.09654335    -0.03100
C1060       C  0.51141117  0.86020404  0.11588619    -0.07500
C1061       C  0.54856915  0.85923589  0.11016065     0.06000
C1062       C  0.57296832  0.88102500  0.08398928    -0.02500
Br1063     Br  0.62579549  0.88551972  0.07370347    -0.02200
H1064       H  0.57993826  0.91985742  0.04522137     0.09900
H1065       H  0.49206391  0.84385235  0.13572891     0.07900
Br1066     Br  0.44897225  0.88331608  0.10803774    -0.02700
C1067       C  0.64103911  0.99479636  0.93939703    -0.09300
C1068       C  0.61735338  0.01164887  0.92735974     0.06900
C1069       C  0.62375856  0.02508007  0.89626749    -0.03100
C1070       C  0.65263768  0.02063682  0.87806127    -0.07500
C1071       C  0.67590408  0.00362688  0.89024905     0.06000
C1072       C  0.67017788  0.99095374  0.92121495    -0.02500
Br1073     Br  0.70322927  0.97059493  0.94019914    -0.02200
H1074       H  0.63696826  0.98449536  0.96315608     0.09900
H1075       H  0.65737404  0.03089952  0.85429217     0.07900
Br1076     Br  0.59660111  0.05219004  0.87751110    -0.02700
C1077       C  0.31614725  0.99063852  0.07445870    -0.08100
C1078       C  0.32146044  0.00356918  0.10526186     0.06900
C1079       C  0.36026176  0.01680037  0.11966893    -0.03100
C1080       C  0.39344070  0.01819704  0.10278456    -0.07500
C1081       C  0.38794292  0.00539691  0.07190094     0.06000
C1082       C  0.34888155  0.99131904  0.05779130    -0.02500
Br1083     Br  0.33959637  0.97511771  0.01526877    -0.02200
H1084       H  0.28651333  0.98083439  0.06318734     0.09900
H1085       H  0.42337638  0.02876607  0.11384408     0.07900
Br1086     Br  0.36872265  0.03140402  0.16237149    -0.02700
loop_ 
_geom_bond_atom_site_label_1 
_geom_bond_atom_site_label_2 
_geom_bond_distance 
_geom_bond_site_symmetry_2 
_ccdc_geom_bond_type 
O1           C17   1.273       .  A
O1           Zn7   2.010   1_556  S
C2           O18   1.272       .  A
C2           O15   1.276       .  A
C2         C1048   1.490       .  S
O3           C16   1.279       .  A
O3          Cd10   2.116       .  S
O4           C22   1.275       .  A
O4          Cd13   2.072       .  S
O5           C19   1.273       .  A
O5           Cd9   2.060       .  S
O6           C17   1.271       .  A
O6           Cd9   2.062       .  S
Zn7          O18   1.988       .  S
Zn7          O20   1.995   1_545  S
Zn7          O12   1.925       .  S
O8           C19   1.278       .  A
O8          Cd13   2.101   1_556  S
Cd9          O11   2.050   1_545  S
Cd9          O12   1.991   1_556  S
Cd10         O14   2.106   1_554  S
Cd10         O23   2.077       .  S
Cd10         O12   2.019   1_565  S
O11          C21   1.272       .  A
O12         Cd13   2.017       .  S
Cd13         O15   2.094       .  S
O14          C21   1.280       .  A
C16          O20   1.272       .  A
C16        C1058   1.493       .  S
C17        C1068   1.483       .  S
C19        C1028   1.480       .  S
C21        C1041   1.490       .  S
C22          O23   1.277   1_545  A
C22        C1081   1.468       .  S
O24          C40   1.273       .  A
O24         Zn30   2.004   1_554  S
C25          O41   1.270       .  A
C25          O38   1.279       .  A
C25         C968   1.494       .  S
O26          C39   1.278       .  A
O26         Cd33   2.098       .  S
O27          C45   1.276       .  A
O27         Cd36   2.071       .  S
O28          C42   1.274       .  A
O28         Cd32   2.065       .  S
O29          C40   1.274       .  A
O29         Cd32   2.075       .  S
Zn30         O41   1.998       .  S
Zn30         O43   2.005       .  S
Zn30         O35   1.930   1_556  S
O31          C42   1.276       .  A
O31         Cd36   2.087   1_554  S
Cd32         O34   2.065       .  S
Cd32         O35   1.999       .  S
Cd33         O37   2.105   1_556  S
Cd33         O46   2.071       .  S
Cd33         O35   2.015   1_556  S
O34          C44   1.273       .  A
O35         Cd36   2.014   1_554  S
Cd36         O38   2.108       .  S
O37          C44   1.280       .  A
C39          O43   1.272       .  A
C39         C978   1.485       .  S
C40        C1018   1.487       .  S
C42         C988   1.479       .  S
C44        C1001   1.499       .  S
C45          O46   1.275       .  A
C45        C1011   1.468       .  S
O47          C63   1.269       .  A
O47         Zn53   1.984       .  S
C48          O64   1.271       .  A
C48          O61   1.277       .  A
C48         C908   1.479       .  S
O49          C62   1.278       .  A
O49         Cd56   2.105       .  S
O50          C68   1.275   1_565  A
O50         Cd59   2.064       .  S
O51          C65   1.277       .  A
O51         Cd55   2.090   1_565  S
O52          C63   1.276       .  A
O52         Cd55   2.077       .  S
Zn53         O64   1.999   1_545  S
Zn53         O66   2.018       .  S
Zn53         O58   1.931       .  S
O54          C65   1.277       .  A
O54         Cd59   2.101       .  S
Cd55         O57   2.067       .  S
Cd55         O58   2.006       .  S
Cd56         O60   2.090       .  S
Cd56         O69   2.068       .  S
Cd56         O58   2.016       .  S
O57          C67   1.276       .  A
O58         Cd59   2.007   1_545  S
Cd59         O61   2.092       .  S
O60          C67   1.278       .  A
C62          O66   1.271       .  A
C62         C918   1.501       .  S
C63         C948   1.483       .  S
C65         C928   1.503       .  S
C67         C941   1.481       .  S
C68          O69   1.275       .  A
C68         C958   1.468       .  S
O70          C86   1.273       .  A
O70         Zn76   1.990   1_554  S
C71          O87   1.269       .  A
C71          O84   1.278       .  A
C71         C848   1.489       .  S
O72          C85   1.279       .  A
O72         Cd79   2.106       .  S
O73          C91   1.274   1_655  A
O73         Cd82   2.059       .  S
O74          C88   1.274       .  A
O74         Cd78   2.069       .  S
O75          C86   1.271       .  A
O75         Cd78   2.064       .  S
Zn76         O87   1.990       .  S
Zn76         O89   1.997   1_655  S
Zn76         O81   1.920   1_556  S
O77          C88   1.276       .  A
O77         Cd82   2.089   1_554  S
Cd78         O80   2.048   1_655  S
Cd78         O81   1.992       .  S
Cd79         O83   2.101   1_556  S
Cd79         O92   2.066       .  S
Cd79         O81   2.019   1_456  S
O80          C90   1.270       .  A
O81         Cd82   2.008   1_554  S
Cd82         O84   2.098       .  S
O83          C90   1.279       .  A
C85          O89   1.270       .  A
C85         C858   1.490       .  S
C86         C891   1.483       .  S
C88         C871   1.481       .  S
C90         C878   1.495       .  S
C91          O92   1.275       .  A
C91         C901   1.459       .  S
O93         C109   1.270       .  A
O93         Zn99   1.987       .  S
C94         O110   1.272       .  A
C94         O107   1.272       .  A
C94         C831   1.485       .  S
O95         C108   1.278       .  A
O95        Cd102   2.103       .  S
O96         C114   1.274       .  A
O96        Cd105   2.049   1_455  S
O97         C111   1.276       .  A
O97        Cd101   2.099       .  S
O98         C109   1.279       .  A
O98        Cd101   2.105       .  S
Zn99        O110   1.988       .  S
Zn99        O112   2.003   1_655  S
Zn99        O104   1.920       .  S
O100        C111   1.275       .  A
O100       Cd105   2.064       .  S
Cd101       O103   2.063       .  S
Cd101       O104   2.012       .  S
Cd102       O106   2.070       .  S
Cd102       O115   2.093       .  S
Cd102       O104   2.015   1_455  S
O103        C113   1.275   1_655  A
O104       Cd105   1.992       .  S
Cd105       O107   2.071       .  S
O106        C113   1.275       .  A
C108        O112   1.270       .  A
C108        C788   1.494       .  S
C109        C798   1.484       .  S
C111        C818   1.501       .  S
C113        C838   1.466       .  S
C114        O115   1.276       .  A
C114        C808   1.494       .  S
N116        C120   1.350       .  A
N116        C117   1.352   1_655  A
N116        C828   1.432       .  S
C117        C771   1.482       .  S
C117        C118   1.383       .  A
C118        C119   1.382   1_455  A
C118        H121   1.082       .  S
C119        C120   1.384       .  A
C119        H122   1.082       .  S
C120        C778   1.482       .  S
C123        C931   1.509       .  S
C123        N124   1.364       .  A
C123        N128   1.365       .  A
N124        C125   1.363       .  A
C125        C748   1.485       .  S
C125        N126   1.356       .  A
N126        C127   1.355       .  A
C127        C761   1.480       .  S
C127        N128   1.361       .  A
C129        C938   1.499       .  S
C129        N130   1.368       .  A
C129        N134   1.361       .  A
N130        C131   1.363       .  A
C131        C781   1.492       .  S
C131        N132   1.355       .  A
N132        C133   1.351       .  A
C133        C738   1.474       .  S
C133        N134   1.355       .  A
N135        C139   1.357       .  A
N135        C136   1.357       .  A
N135        C718   1.432       .  S
C136        C758   1.491       .  S
C136        C137   1.383       .  A
C137        C138   1.379       .  A
C137        H140   1.082       .  S
C138        C139   1.385       .  A
C138        H141   1.082       .  S
C139        C728   1.488       .  S
C142        C821   1.493       .  S
C142        N143   1.363       .  A
C142        N147   1.369       .  A
N143        C144   1.358       .  A
C144        C708   1.484       .  S
C144        N145   1.352       .  A
N145        C146   1.353       .  A
C146        C731   1.490       .  S
C146        N147   1.365       .  A
C148        C811   1.491       .  S
C148        N149   1.366       .  A
C148        N153   1.360       .  A
N149        C150   1.362       .  A
C150        C701   1.480       .  S
C150        N151   1.357       .  A
N151        C152   1.355       .  A
C152        C691   1.476       .  S
C152        N153   1.356       .  A
N154        C158   1.357   1_545  A
N154        C155   1.354       .  A
N154        C951   1.433       .  S
C155        C678   1.486       .  S
C155        C156   1.384       .  A
C156        C157   1.381   1_545  A
C156        H159   1.082       .  S
C157        C158   1.384       .  A
C157        H160   1.082       .  S
C158        C698   1.490       .  S
C161        C668   1.502       .  S
C161        N162   1.361       .  A
C161        N166   1.369       .  A
N162        C163   1.357       .  A
C163        C768   1.476       .  S
C163        N164   1.353       .  A
N164        C165   1.356       .  A
C165        C661   1.485       .  S
C165        N166   1.362       .  A
C167        C648   1.506       .  S
C167        N168   1.367       .  A
C167        N172   1.369       .  A
N168        C169   1.364       .  A
C169        C681   1.494       .  S
C169        N170   1.350       .  A
N170        C171   1.351       .  A
C171        C638   1.480       .  S
C171        N172   1.360       .  A
C173       C1061   1.497       .  S
C173        N174   1.364       .  A
C173        N178   1.364       .  A
N174        C175   1.361       .  A
C175        C751   1.481       .  S
C175        N176   1.357       .  A
N176        C177   1.357       .  A
C177        C631   1.485       .  S
C177        N178   1.361       .  A
C179       C1051   1.486       .  S
C179        N180   1.363       .  A
C179        N184   1.361       .  A
N180        C181   1.360       .  A
C181        C741   1.475       .  S
C181        N182   1.356       .  A
N182        C183   1.355       .  A
C183        C618   1.487       .  S
C183        N184   1.356       .  A
N185        C189   1.353       .  A
N185        C186   1.357       .  A
N185       C1021   1.436       .  S
C186        C628   1.489       .  S
C186        C187   1.384       .  A
C187        C188   1.379       .  A
C187        H190   1.082       .  S
C188        C189   1.383       .  A
C188        H191   1.082       .  S
C189        C608   1.480       .  S
C192        C868   1.497       .  S
C192        N193   1.364       .  A
C192        N197   1.368       .  A
N193        C194   1.358       .  A
C194        C711   1.480       .  S
C194        N195   1.352       .  A
N195        C196   1.354       .  A
C196        C611   1.498       .  S
C196        N197   1.361       .  A
C198        C881   1.480       .  S
C198        N199   1.360       .  A
C198        N203   1.367       .  A
N199        C200   1.352       .  A
C200        C688   1.472       .  S
C200        N201   1.352       .  A
N201        C202   1.359       .  A
C202        C601   1.504       .  S
C202        N203   1.365       .  A
N204        C208   1.355   1_545  A
N204        C205   1.358       .  A
N204       C1078   1.438       .  S
C205        C588   1.488       .  S
C205        C206   1.385       .  A
C206        C207   1.379   1_545  A
C206        H209   1.082       .  S
C207        C208   1.382       .  A
C207        H210   1.082       .  S
C208        C598   1.480       .  S
C211        C998   1.503       .  S
C211        N212   1.370       .  A
C211        N216   1.363       .  A
N212        C213   1.362       .  A
C213        C658   1.485       .  S
C213        N214   1.353       .  A
N214        C215   1.352       .  A
C215        C578   1.474       .  S
C215        N216   1.358       .  A
C217        C991   1.494       .  S
C217        N218   1.365       .  A
C217        N222   1.363       .  A
N218        C219   1.360       .  A
C219        C591   1.489       .  S
C219        N220   1.358       .  A
N220        C221   1.356       .  A
C221        C641   1.481       .  S
C221        N222   1.358       .  A
N223        C227   1.353       .  A
N223        C224   1.353   1_655  A
N223        C888   1.434       .  S
C224        C581   1.484       .  S
C224        C225   1.383       .  A
C225        C226   1.381   1_455  A
C225        H228   1.082       .  S
C226        C227   1.385       .  A
C226        H229   1.082       .  S
C227        C621   1.486       .  S
O230        C246   1.274       .  A
O230       Zn236   2.007       .  S
C231        O247   1.271       .  A
C231        O244   1.274       .  A
C231        C721   1.480       .  S
O232        C245   1.278       .  A
O232       Cd239   2.106       .  S
O233        C251   1.274       .  A
O233       Cd242   2.069       .  S
O234        C248   1.280       .  A
O234       Cd238   2.109       .  S
O235        C246   1.277       .  A
O235       Cd238   2.102       .  S
Zn236       O247   1.995       .  S
Zn236       O249   2.010       .  S
Zn236       O241   1.930       .  S
O237        C248   1.274       .  A
O237       Cd242   2.067       .  S
Cd238       O240   2.074       .  S
Cd238       O241   2.019       .  S
Cd239       O243   2.063       .  S
Cd239       O252   2.094       .  S
Cd239       O241   2.015       .  S
O240        C250   1.276       .  A
O241       Cd242   2.001       .  S
Cd242       O244   2.068       .  S
O243        C250   1.275       .  A
C245        O249   1.273       .  A
C245        C548   1.492       .  S
C246        C558   1.497       .  S
C248        C651   1.492       .  S
C250        C568   1.466       .  S
C251        O252   1.278       .  A
C251        C671   1.489       .  S
C253        C551   1.496       .  S
C253        N254   1.362       .  A
C253        N258   1.365       .  A
N254        C255   1.360       .  A
C255        C541   1.480       .  S
C255        N256   1.356       .  A
N256        C257   1.358       .  A
C257        C528   1.478       .  S
C257        N258   1.362       .  A
C259        C561   1.491       .  S
C259        N260   1.363       .  A
C259        N264   1.365       .  A
N260        C261   1.359       .  A
C261        C521   1.482       .  S
C261        N262   1.357       .  A
N262        C263   1.358       .  A
C263        C508   1.483       .  S
C263        N264   1.363       .  A
N265        C269   1.355       .  A
N265        C266   1.359   1_545  A
N265        C961   1.437       .  S
C266        C538   1.491       .  S
C266        C267   1.384       .  A
C267        C268   1.377   1_565  A
C267        H270   1.082       .  S
C268        C269   1.383       .  A
C268        H271   1.082       .  S
C269        C498   1.485       .  S
C272        C801   1.492       .  S
C272        N273   1.362       .  A
C272        N277   1.368       .  A
N273        C274   1.356       .  A
C274        C488   1.473       .  S
C274        N275   1.352       .  A
N275        C276   1.356       .  A
C276        C501   1.497       .  S
C276        N277   1.362       .  A
C278        C791   1.485       .  S
C278        N279   1.362       .  A
C278        N283   1.363       .  A
N279        C280   1.359       .  A
C280        C468   1.477       .  S
C280        N281   1.359       .  A
N281        C282   1.358       .  A
C282        C478   1.484       .  S
C282        N283   1.360       .  A
N284        C288   1.355       .  A
N284        C285   1.358       .  A
N284        C571   1.436       .  S
C285        C481   1.489       .  S
C285        C286   1.383       .  A
C286        C287   1.380       .  A
C286        H289   1.082       .  S
C287        C288   1.383       .  A
C287        H290   1.082       .  S
C288        C458   1.484       .  S
C291        C921   1.495       .  S
C291        N292   1.367       .  A
C291        N296   1.365       .  A
N292        C293   1.363       .  A
C293        C461   1.500       .  S
C293        N294   1.353       .  A
N294        C295   1.355       .  A
C295        C448   1.484       .  S
C295        N296   1.361       .  A
C297        C911   1.500       .  S
C297        N298   1.370       .  A
C297        N302   1.362       .  A
N298        C299   1.363       .  A
C299        C441   1.491       .  S
C299        N300   1.352       .  A
N300        C301   1.352       .  A
C301        C428   1.477       .  S
C301        N302   1.356       .  A
N303        C307   1.362       .  A
N303        C304   1.359   1_455  A
N303        C841   1.436       .  S
C304        C518   1.491       .  S
C304        C305   1.381       .  A
C305        C306   1.376   1_655  A
C305        H308   1.084       .  S
C306        C307   1.387       .  A
C306        H309   1.082       .  S
C307        C438   1.494       .  S
N310        C314   1.352       .  A
N310        C311   1.353   1_455  A
N310        C898   1.434       .  S
C311        C418   1.483       .  S
C311        C312   1.384       .  A
C312        C313   1.381   1_655  A
C312        H315   1.082       .  S
C313        C314   1.382       .  A
C313        H316   1.082       .  S
C314        C411   1.476       .  S
C317       C1031   1.496       .  S
C317        N318   1.363       .  A
C317        N322   1.367       .  A
N318        C319   1.357       .  A
C319        C398   1.473       .  S
C319        N320   1.352       .  A
N320        C321   1.355       .  A
C321        C451   1.485       .  S
C321        N322   1.363       .  A
C323       C1038   1.496       .  S
C323        N324   1.368       .  A
C323        N328   1.367       .  A
N324        C325   1.363       .  A
C325        C408   1.493       .  S
C325        N326   1.353       .  A
N326        C327   1.350       .  A
C327        C431   1.480       .  S
C327        N328   1.357       .  A
C329        C981   1.493       .  S
C329        N330   1.363       .  A
C329        N334   1.364       .  A
N330        C331   1.360       .  A
C331        C531   1.475       .  S
C331        N332   1.355       .  A
N332        C333   1.355       .  A
C333        C388   1.478       .  S
C333        N334   1.360       .  A
C335        C971   1.486       .  S
C335        N336   1.362       .  A
C335        N340   1.364       .  A
N336        C337   1.359       .  A
C337        C421   1.479       .  S
C337        N338   1.356       .  A
N338        C339   1.357       .  A
C339        C511   1.481       .  S
C339        N340   1.362       .  A
N341        C345   1.352       .  A
N341        C342   1.355   1_545  A
N341       C1071   1.436       .  S
C342        C391   1.482       .  S
C342        C343   1.384       .  A
C343        C344   1.380   1_565  A
C343        H346   1.082       .  S
C344        C345   1.382       .  A
C344        H347   1.082       .  S
C345        C381   1.478       .  S
C348        C851   1.486       .  S
C348        N349   1.364       .  A
C348        N353   1.361       .  A
N349        C350   1.360       .  A
C350        C378   1.498       .  S
C350        N351   1.357       .  A
N351        C352   1.354       .  A
C352        C491   1.471       .  S
C352        N353   1.357       .  A
C354        C861   1.489       .  S
C354        N355   1.365       .  A
C354        N359   1.367       .  A
N355        C356   1.358       .  A
C356        C471   1.475       .  S
C356        N357   1.352       .  A
N357        C358   1.355       .  A
C358        C368   1.500       .  S
C358        N359   1.361       .  A
N360        C364   1.356       .  A
N360        C361   1.353       .  A
N360       C1008   1.439       .  S
C361        C371   1.477       .  S
C361        C362   1.383       .  A
C362        C363   1.379       .  A
C362        H365   1.082       .  S
C363        C364   1.383       .  A
C363        H366   1.082       .  S
C364        C401   1.481       .  S
C367        C368   1.412       .  A
C367        C372   1.392       .  A
C367        H374   1.082       .  S
C368        C369   1.421       .  A
C369        C370   1.407       .  A
C369       Br376   1.919       .  S
C370        C371   1.401       .  A
C370        H375   1.083       .  S
C371        C372   1.403       .  A
C372       Br373   1.922       .  S
C377        C378   1.411       .  A
C377        C382   1.394       .  A
C377        H384   1.082       .  S
C378        C379   1.422       .  A
C379        C380   1.406       .  A
C379       Br386   1.921       .  S
C380        C381   1.401       .  A
C380        H385   1.084       .  S
C381        C382   1.402       .  A
C382       Br383   1.920       .  S
C387        C388   1.404       .  A
C387        C392   1.401       .  A
C387        H394   1.084       .  S
C388        C389   1.411       .  A
C389        C390   1.399       .  A
C389       Br396   1.920       .  S
C390        C391   1.403       .  A
C390        H395   1.083       .  S
C391        C392   1.410       .  A
C392       Br393   1.919       .  S
C397        C398   1.404       .  A
C397        C402   1.401       .  A
C397        H404   1.084       .  S
C398        C399   1.408       .  A
C399        C400   1.395       .  A
C399       Br406   1.920       .  S
C400        C401   1.403       .  A
C400        H405   1.083       .  S
C401        C402   1.410       .  A
C402       Br403   1.919       .  S
C407        C408   1.410       .  A
C407        C412   1.393       .  A
C407        H414   1.083       .  S
C408        C409   1.417       .  A
C409        C410   1.407       .  A
C409       Br416   1.918       .  S
C410        C411   1.403       .  A
C410        H415   1.083       .  S
C411        C412   1.403       .  A
C412       Br413   1.921       .  S
C417        C418   1.403       .  A
C417        C422   1.399       .  A
C417        H424   1.083       .  S
C418        C419   1.409       .  A
C419        C420   1.402       .  A
C419       Br426   1.918       .  S
C420        C421   1.405       .  A
C420        H425   1.084       .  S
C421        C422   1.410       .  A
C422       Br423   1.920       .  S
C427        C428   1.406       .  A
C427        C432   1.406       .  A
C427        H434   1.083       .  S
C428        C429   1.408       .  A
C429        C430   1.393       .  A
C429       Br436   1.921       .  S
C430        C431   1.404       .  A
C430        H435   1.084       .  S
C431        C432   1.413       .  A
C432       Br433   1.918       .  S
C437        C438   1.403       .  A
C437        C442   1.394       .  A
C437        H444   1.083       .  S
C438        C439   1.414       .  A
C439        C440   1.409       .  A
C439       Br446   1.915       .  S
C440        C441   1.407       .  A
C440        H445   1.083       .  S
C441        C442   1.416       .  A
C442       Br443   1.926       .  S
C447        C448   1.406       .  A
C447        C452   1.406       .  A
C447        H454   1.083       .  S
C448        C449   1.410       .  A
C449        C450   1.398       .  A
C449       Br456   1.921       .  S
C450        C451   1.405       .  A
C450        H455   1.084       .  S
C451        C452   1.413       .  A
C452       Br453   1.918       .  S
C457        C458   1.397       .  A
C457        C462   1.397       .  A
C457        H464   1.084       .  S
C458        C459   1.406       .  A
C459        C460   1.407       .  A
C459       Br466   1.916       .  S
C460        C461   1.412       .  A
C460        H465   1.083       .  S
C461        C462   1.424       .  A
C462       Br463   1.925       .  S
C467        C468   1.406       .  A
C467        C472   1.405       .  A
C467        H474   1.084       .  S
C468        C469   1.407       .  A
C469        C470   1.397       .  A
C469       Br476   1.916       .  S
C470        C471   1.402       .  A
C470        H475   1.084       .  S
C471        C472   1.410       .  A
C472       Br473   1.918       .  S
C477        C478   1.405       .  A
C477        C482   1.403       .  A
C477        H484   1.083       .  S
C478        C479   1.411       .  A
C479        C480   1.400       .  A
C479       Br486   1.917       .  S
C480        C481   1.404       .  A
C480        H485   1.083       .  S
C481        C482   1.411       .  A
C482       Br483   1.918       .  S
C487        C488   1.402       .  A
C487        C492   1.397       .  A
C487        H494   1.084       .  S
C488        C489   1.410       .  A
C489        C490   1.402       .  A
C489       Br496   1.919       .  S
C490        C491   1.403       .  A
C490        H495   1.084       .  S
C491        C492   1.407       .  A
C492       Br493   1.919       .  S
C497        C498   1.405       .  A
C497        C502   1.410       .  A
C497        H504   1.083       .  S
C498        C499   1.406       .  A
C499        C500   1.392       .  A
C499       Br506   1.921       .  S
C500        C501   1.409       .  A
C500        H505   1.083       .  S
C501        C502   1.419       .  A
C502       Br503   1.919       .  S
C507        C508   1.405       .  A
C507        C512   1.405       .  A
C507        H514   1.083       .  S
C508        C509   1.410       .  A
C509        C510   1.400       .  A
C509       Br516   1.917       .  S
C510        C511   1.403       .  A
C510        H515   1.084       .  S
C511        C512   1.412       .  A
C512       Br513   1.919       .  S
C517        C518   1.404       .  A
C517        C522   1.399       .  A
C517        H524   1.095       .  S
C518        C519   1.412       .  A
C519        C520   1.401       .  A
C519       Br526   1.919       .  S
C520        C521   1.403       .  A
C520        H525   1.095       .  S
C521        C522   1.409       .  A
C522       Br523   1.916       .  S
C527        C528   1.405       .  A
C527        C532   1.404       .  A
C527        H534   1.084       .  S
C528        C529   1.408       .  A
C529        C530   1.399       .  A
C529       Br536   1.918       .  S
C530        C531   1.402       .  A
C530        H535   1.084       .  S
C531        C532   1.410       .  A
C532       Br533   1.919       .  S
C537        C538   1.406       .  A
C537        C542   1.402       .  A
C537        H544   1.082       .  S
C538        C539   1.413       .  A
C539        C540   1.401       .  A
C539       Br546   1.920       .  S
C540        C541   1.402       .  A
C540        H545   1.083       .  S
C541        C542   1.409       .  A
C542       Br543   1.918       .  S
C547        C548   1.406       .  A
C547        C552   1.400       .  A
C547        H554   1.084       .  S
C548        C549   1.413       .  A
C549        C550   1.406       .  A
C549       Br556   1.920       .  S
C550        C551   1.409       .  A
C550        H555   1.083       .  S
C551        C552   1.416       .  A
C552       Br553   1.922       .  S
C557        C558   1.408       .  A
C557        C562   1.398       .  A
C557        H564   1.083       .  S
C558        C559   1.417       .  A
C559        C560   1.407       .  A
C559       Br566   1.921       .  S
C560        C561   1.407       .  A
C560        H565   1.083       .  S
C561        C562   1.412       .  A
C562       Br563   1.921       .  S
C567        C568   1.400       .  A
C567        C572   1.394       .  A
C567        H574   1.084       .  S
C568        C569   1.407       .  A
C569        C570   1.400       .  A
C569       Br576   1.918       .  S
C570        C571   1.403       .  A
C570        H575   1.083       .  S
C571        C572   1.408       .  A
C572       Br573   1.917       .  S
C577        C578   1.403       .  A
C577        C582   1.403       .  A
C577        H584   1.083       .  S
C578        C579   1.408       .  A
C579        C580   1.395       .  A
C579       Br586   1.920       .  S
C580        C581   1.403       .  A
C580        H585   1.082       .  S
C581        C582   1.411       .  A
C582       Br583   1.918       .  S
C587        C588   1.405       .  A
C587        C592   1.407       .  A
C587        H594   1.083       .  S
C588        C589   1.412       .  A
C589        C590   1.395       .  A
C589       Br596   1.922       .  S
C590        C591   1.405       .  A
C590        H595   1.084       .  S
C591        C592   1.414       .  A
C592       Br593   1.918       .  S
C597        C598   1.402       .  A
C597        C602   1.410       .  A
C597        H604   1.083       .  S
C598        C599   1.402       .  A
C599        C600   1.392       .  A
C599       Br606   1.921       .  S
C600        C601   1.412       .  A
C600        H605   1.082       .  S
C601        C602   1.423       .  A
C602       Br603   1.919       .  S
C607        C608   1.403       .  A
C607        C612   1.408       .  A
C607        H614   1.083       .  S
C608        C609   1.404       .  A
C609        C610   1.392       .  A
C609       Br616   1.922       .  S
C610        C611   1.411       .  A
C610        H615   1.083       .  S
C611        C612   1.420       .  A
C612       Br613   1.919       .  S
C617        C618   1.406       .  A
C617        C622   1.396       .  A
C617        H624   1.083       .  S
C618        C619   1.414       .  A
C619        C620   1.403       .  A
C619       Br626   1.920       .  S
C620        C621   1.405       .  A
C620        H625   1.083       .  S
C621        C622   1.410       .  A
C622       Br623   1.921       .  S
C627        C628   1.404       .  A
C627        C632   1.401       .  A
C627        H634   1.083       .  S
C628        C629   1.412       .  A
C629        C630   1.403       .  A
C629       Br636   1.919       .  S
C630        C631   1.405       .  A
C630        H635   1.083       .  S
C631        C632   1.412       .  A
C632       Br633   1.920       .  S
C637        C638   1.405       .  A
C637        C642   1.407       .  A
C637        H644   1.083       .  S
C638        C639   1.409       .  A
C639        C640   1.397       .  A
C639       Br646   1.920       .  S
C640        C641   1.402       .  A
C640        H645   1.084       .  S
C641        C642   1.413       .  A
C642       Br643   1.919       .  S
C647        C648   1.410       .  A
C647        C652   1.401       .  A
C647        H654   1.083       .  S
C648        C649   1.423       .  A
C649        C650   1.407       .  A
C649       Br656   1.921       .  S
C650        C651   1.404       .  A
C650        H655   1.084       .  S
C651        C652   1.412       .  A
C652       Br653   1.922       .  S
C657        C658   1.406       .  A
C657        C662   1.409       .  A
C657        H664   1.083       .  S
C658        C659   1.413       .  A
C659        C660   1.396       .  A
C659       Br666   1.924       .  S
C660        C661   1.403       .  A
C660        H665   1.084       .  S
C661        C662   1.412       .  A
C662       Br663   1.917       .  S
C667        C668   1.409       .  A
C667        C672   1.401       .  A
C667        H674   1.083       .  S
C668        C669   1.424       .  A
C669        C670   1.403       .  A
C669       Br676   1.924       .  S
C670        C671   1.403       .  A
C670        H675   1.084       .  S
C671        C672   1.412       .  A
C672       Br673   1.922       .  S
C677        C678   1.398       .  A
C677        C682   1.395       .  A
C677        H684   1.084       .  S
C678        C679   1.410       .  A
C679        C680   1.405       .  A
C679       Br686   1.915       .  S
C680        C681   1.408       .  A
C680        H685   1.082       .  S
C681        C682   1.422       .  A
C682       Br683   1.926       .  S
C687        C688   1.401       .  A
C687        C692   1.395       .  A
C687        H694   1.084       .  S
C688        C689   1.410       .  A
C689        C690   1.401       .  A
C689       Br696   1.919       .  S
C690        C691   1.404       .  A
C690        H695   1.083       .  S
C691        C692   1.408       .  A
C692       Br693   1.914       .  S
C697        C698   1.401       .  A
C697        C702   1.393       .  A
C697        H704   1.079       .  S
C698        C699   1.414       .  A
C699        C700   1.407       .  A
C699       Br706   1.918       .  S
C700        C701   1.405       .  A
C700        H705   1.083       .  S
C701        C702   1.408       .  A
C702       Br703   1.915       .  S
C707        C708   1.406       .  A
C707        C712   1.403       .  A
C707        H714   1.080       .  S
C708        C709   1.411       .  A
C709        C710   1.396       .  A
C709       Br716   1.922       .  S
C710        C711   1.404       .  A
C710        H715   1.084       .  S
C711        C712   1.411       .  A
C712       Br713   1.919       .  S
C717        C718   1.396       .  A
C717        C722   1.392       .  A
C717        H724   1.083       .  S
C718        C719   1.404       .  A
C719        C720   1.399       .  A
C719       Br726   1.916       .  S
C720        C721   1.409       .  A
C720        H725   1.083       .  S
C721        C722   1.417       .  A
C722       Br723   1.924       .  S
C727        C728   1.399       .  A
C727        C732   1.393       .  A
C727        H734   1.084       .  S
C728        C729   1.413       .  A
C729        C730   1.409       .  A
C729       Br736   1.915       .  S
C730        C731   1.407       .  A
C730        H735   1.083       .  S
C731        C732   1.418       .  A
C732       Br733   1.925       .  S
C737        C738   1.402       .  A
C737        C742   1.395       .  A
C737        H744   1.084       .  S
C738        C739   1.412       .  A
C739        C740   1.403       .  A
C739       Br746   1.920       .  S
C740        C741   1.404       .  A
C740        H745   1.084       .  S
C741        C742   1.408       .  A
C742       Br743   1.920       .  S
C747        C748   1.405       .  A
C747        C752   1.404       .  A
C747        H754   1.083       .  S
C748        C749   1.412       .  A
C749        C750   1.400       .  A
C749       Br756   1.918       .  S
C750        C751   1.403       .  A
C750        H755   1.084       .  S
C751        C752   1.411       .  A
C752       Br753   1.918       .  S
C757        C758   1.405       .  A
C757        C762   1.399       .  A
C757        H764   1.081       .  S
C758        C759   1.413       .  A
C759        C760   1.402       .  A
C759       Br766   1.918       .  S
C760        C761   1.403       .  A
C760        H765   1.083       .  S
C761        C762   1.409       .  A
C762       Br763   1.918       .  S
C767        C768   1.404       .  A
C767        C772   1.403       .  A
C767        H774   1.083       .  S
C768        C769   1.408       .  A
C769        C770   1.397       .  A
C769       Br776   1.920       .  S
C770        C771   1.403       .  A
C770        H775   1.083       .  S
C771        C772   1.409       .  A
C772       Br773   1.917       .  S
C777        C778   1.405       .  A
C777        C782   1.406       .  A
C777        H784   1.083       .  S
C778        C779   1.406       .  A
C779        C780   1.394       .  A
C779       Br786   1.922       .  S
C780        C781   1.409       .  A
C780        H785   1.083       .  S
C781        C782   1.415       .  A
C782       Br783   1.919       .  S
C787        C788   1.408       .  A
C787        C792   1.404       .  A
C787        H794   1.083       .  S
C788        C789   1.420       .  A
C789        C790   1.399       .  A
C789       Br796   1.924       .  S
C790        C791   1.402       .  A
C790        H795   1.084       .  S
C791        C792   1.412       .  A
C792       Br793   1.920       .  S
C797        C798   1.402       .  A
C797        C802   1.403       .  A
C797        H804   1.083       .  S
C798        C799   1.414       .  A
C799        C800   1.398       .  A
C799       Br806   1.923       .  S
C800        C801   1.405       .  A
C800        H805   1.083       .  S
C801        C802   1.419       .  A
C802       Br803   1.922       .  S
C807        C808   1.408       .  A
C807        C812   1.396       .  A
C807        H814   1.083       .  S
C808        C809   1.416       .  A
C809        C810   1.404       .  A
C809       Br816   1.921       .  S
C810        C811   1.407       .  A
C810        H815   1.083       .  S
C811        C812   1.415       .  A
C812       Br813   1.924       .  S
C817        C818   1.408       .  A
C817        C822   1.397       .  A
C817        H824   1.083       .  S
C818        C819   1.420       .  A
C819        C820   1.408       .  A
C819       Br826   1.920       .  S
C820        C821   1.406       .  A
C820        H825   1.083       .  S
C821        C822   1.413       .  A
C822       Br823   1.920       .  S
C827        C828   1.399       .  A
C827        C832   1.401       .  A
C827        H834   1.083       .  S
C828        C829   1.400       .  A
C829        C830   1.390       .  A
C829       Br836   1.917   1_655  S
C830        C831   1.409       .  A
C830        H835   1.083   1_655  S
C831        C832   1.419       .  A
C832       Br833   1.920       .  S
C837        C838   1.403       .  A
C837        C842   1.400       .  A
C837        H844   1.083       .  S
C838        C839   1.407   1_455  A
C839        C840   1.393       .  A
C839       Br846   1.921       .  S
C840        C841   1.402   1_655  A
C840        H845   1.083       .  S
C841        C842   1.408       .  A
C842       Br843   1.915       .  S
C847        C848   1.405       .  A
C847        C852   1.402       .  A
C847        H854   1.083       .  S
C848        C849   1.419       .  A
C849        C850   1.398       .  A
C849       Br856   1.925       .  S
C850        C851   1.403       .  A
C850        H855   1.083       .  S
C851        C852   1.414       .  A
C852       Br853   1.921       .  S
C857        C858   1.406       .  A
C857        C862   1.404       .  A
C857        H864   1.083       .  S
C858        C859   1.417       .  A
C859        C860   1.400       .  A
C859       Br866   1.924       .  S
C860        C861   1.404       .  A
C860        H865   1.083       .  S
C861        C862   1.414       .  A
C862       Br863   1.920       .  S
C867        C868   1.409       .  A
C867        C872   1.401       .  A
C867        H874   1.082       .  S
C868        C869   1.420       .  A
C869        C870   1.402       .  A
C869       Br876   1.923       .  S
C870        C871   1.402       .  A
C870        H875   1.084       .  S
C871        C872   1.409       .  A
C872       Br873   1.921       .  S
C877        C878   1.411       .  A
C877        C882   1.406       .  A
C877        H884   1.083       .  S
C878        C879   1.422       .  A
C879        C880   1.394       .  A
C879       Br886   1.927       .  S
C880        C881   1.399       .  A
C880        H885   1.083       .  S
C881        C882   1.408       .  A
C882       Br883   1.918       .  S
C887        C888   1.400       .  A
C887        C892   1.401       .  A
C887        H894   1.083       .  S
C888        C889   1.402   1_655  A
C889        C890   1.389       .  A
C889       Br896   1.917       .  S
C890        C891   1.407   1_455  A
C890        H895   1.083       .  S
C891        C892   1.419       .  A
C892       Br893   1.921       .  S
C897        C898   1.401       .  A
C897        C902   1.396       .  A
C897        H904   1.077       .  S
C898        C899   1.406   1_455  A
C899        C900   1.396       .  A
C899       Br906   1.915       .  S
C900        C901   1.400   1_655  A
C900        H905   1.084       .  S
C901        C902   1.404       .  A
C902       Br903   1.918       .  S
C907        C908   1.399       .  A
C907        C912   1.401       .  A
C907        H914   1.084       .  S
C908        C909   1.408       .  A
C909        C910   1.399       .  A
C909       Br916   1.918       .  S
C910        C911   1.410       .  A
C910        H915   1.083       .  S
C911        C912   1.425       .  A
C912       Br913   1.924       .  S
C917        C918   1.409       .  A
C917        C922   1.406       .  A
C917        H924   1.083       .  S
C918        C919   1.420       .  A
C919        C920   1.402       .  A
C919       Br926   1.923       .  S
C920        C921   1.404       .  A
C920        H925   1.084       .  S
C921        C922   1.415       .  A
C922       Br923   1.920       .  S
C927        C928   1.408       .  A
C927        C932   1.407       .  A
C927        H934   1.083       .  S
C928        C929   1.416       .  A
C929        C930   1.404       .  A
C929       Br936   1.922       .  S
C930        C931   1.411       .  A
C930        H935   1.083       .  S
C931        C932   1.421       .  A
C932       Br933   1.923       .  S
C937        C938   1.411       .  A
C937        C942   1.402       .  A
C937        H944   1.083       .  S
C938        C939   1.423       .  A
C939        C940   1.399       .  A
C939       Br946   1.925       .  S
C940        C941   1.400       .  A
C940        H945   1.084       .  S
C941        C942   1.409       .  A
C942       Br943   1.921       .  S
C947        C948   1.409       .  A
C947        C952   1.399       .  A
C947        H954   1.083       .  S
C948        C949   1.420   1_545  A
C949        C950   1.391       .  A
C949       Br956   1.923       .  S
C950        C951   1.394   1_565  A
C950        H955   1.083       .  S
C951        C952   1.405       .  A
C952       Br953   1.916       .  S
C957        C958   1.400   1_565  A
C957        C962   1.393       .  A
C957        H964   1.084       .  S
C958        C959   1.409       .  A
C959        C960   1.400       .  A
C959       Br966   1.919       .  S
C960        C961   1.404       .  A
C960        H965   1.083       .  S
C961        C962   1.407   1_545  A
C962       Br963   1.917       .  S
C967        C968   1.408       .  A
C967        C972   1.405       .  A
C967        H974   1.083       .  S
C968        C969   1.420       .  A
C969        C970   1.398       .  A
C969       Br976   1.925       .  S
C970        C971   1.402       .  A
C970        H975   1.084       .  S
C971        C972   1.412       .  A
C972       Br973   1.919       .  S
C977        C978   1.404       .  A
C977        C982   1.404       .  A
C977        H984   1.084       .  S
C978        C979   1.412       .  A
C979        C980   1.400       .  A
C979       Br986   1.923       .  S
C980        C981   1.407       .  A
C980        H985   1.083       .  S
C981        C982   1.417       .  A
C982       Br983   1.921       .  S
C987        C988   1.401       .  A
C987        C992   1.401       .  A
C987        H994   1.084       .  S
C988        C989   1.409       .  A
C989        C990   1.401       .  A
C989       Br996   1.921       .  S
C990        C991   1.410       .  A
C990        H995   1.083       .  S
C991        C992   1.418       .  A
C992       Br993   1.922       .  S
C997        C998   1.407       .  A
C997       C1002   1.401       .  A
C997       H1004   1.083       .  S
C998        C999   1.422       .  A
C999       C1000   1.405       .  A
C999      Br1006   1.924       .  S
C1000      C1001   1.406       .  A
C1000      H1005   1.083       .  S
C1001      C1002   1.418       .  A
C1002     Br1003   1.924       .  S
C1007      C1008   1.403       .  A
C1007      C1012   1.399       .  A
C1007      H1014   1.082       .  S
C1008      C1009   1.409       .  A
C1009      C1010   1.396       .  A
C1009     Br1016   1.917       .  S
C1010      C1011   1.401       .  A
C1010      H1015   1.084       .  S
C1011      C1012   1.408       .  A
C1012     Br1013   1.918       .  S
C1017      C1018   1.408       .  A
C1017      C1022   1.394       .  A
C1017      H1024   1.083       .  S
C1018      C1019   1.418       .  A
C1019      C1020   1.402       .  A
C1019     Br1026   1.921       .  S
C1020      C1021   1.400       .  A
C1020      H1025   1.083       .  S
C1021      C1022   1.402       .  A
C1022     Br1023   1.917       .  S
C1027      C1028   1.403       .  A
C1027      C1032   1.403       .  A
C1027      H1034   1.084       .  S
C1028      C1029   1.407       .  A
C1029      C1030   1.401       .  A
C1029     Br1036   1.921       .  S
C1030      C1031   1.411       .  A
C1030      H1035   1.083       .  S
C1031      C1032   1.417       .  A
C1032     Br1033   1.921       .  S
C1037      C1038   1.406       .  A
C1037      C1042   1.396       .  A
C1037      H1044   1.082       .  S
C1038      C1039   1.418       .  A
C1039      C1040   1.406       .  A
C1039     Br1046   1.920       .  S
C1040      C1041   1.406       .  A
C1040      H1045   1.083       .  S
C1041      C1042   1.415       .  A
C1042     Br1043   1.925       .  S
C1047      C1048   1.407       .  A
C1047      C1052   1.393       .  A
C1047      H1054   1.083       .  S
C1048      C1049   1.415       .  A
C1049      C1050   1.404       .  A
C1049     Br1056   1.921       .  S
C1050      C1051   1.408       .  A
C1050      H1055   1.083       .  S
C1051      C1052   1.413       .  A
C1052     Br1053   1.924       .  S
C1057      C1058   1.407       .  A
C1057      C1062   1.399       .  A
C1057      H1064   1.084       .  S
C1058      C1059   1.412       .  A
C1059      C1060   1.407       .  A
C1059     Br1066   1.919       .  S
C1060      C1061   1.411       .  A
C1060      H1065   1.083       .  S
C1061      C1062   1.416       .  A
C1062     Br1063   1.922       .  S
C1067      C1068   1.407   1_565  A
C1067      C1072   1.395       .  A
C1067      H1074   1.083       .  S
C1068      C1069   1.416       .  A
C1069      C1070   1.399       .  A
C1069     Br1076   1.921       .  S
C1070      C1071   1.401       .  A
C1070      H1075   1.083       .  S
C1071      C1072   1.404   1_545  A
C1072     Br1073   1.916       .  S
C1077      C1078   1.402   1_565  A
C1077      C1082   1.395       .  A
C1077      H1084   1.083       .  S
C1078      C1079   1.409       .  A
C1079      C1080   1.403       .  A
C1079     Br1086   1.915       .  S
C1080      C1081   1.404       .  A
C1080      H1085   1.083       .  S
C1081      C1082   1.406   1_545  A
C1082     Br1083   1.920       .  S
