geometry optimzed in LAMMPS
_audit_creation_date              2020-11-30 
_audit_creation_method            'lammps2cif' 
_symmetry_space_group_name_H-M    'P1' 
_symmetry_Int_Tables_number       1 
_symmetry_cell_setting            triclinic 
loop_ 
_symmetry_equiv_pos_as_xyz 
  x,y,z 
_cell_length_a                    47.799222 
_cell_length_b                    50.21884839537799 
_cell_length_c                    26.368752949903687 
_cell_angle_alpha                 73.56260627680214 
_cell_angle_beta                  87.86534548057251 
_cell_angle_gamma                 114.58302670228005 
loop_ 
_atom_site_label 
_atom_site_type_symbol 
_atom_site_fract_x 
_atom_site_fract_y 
_atom_site_fract_z 
_atom_site_charge 
O1          O  0.24222057  0.27879321  0.85596149    -0.81400
O2          O  0.23541310  0.25611677  0.10520351    -0.66100
O3          O  0.26355947  0.27869365  0.95479142    -1.12700
C4          C  0.23923596  0.17163936  0.99972126     1.05500
O5          O  0.26281868  0.22971052  0.12669203    -0.79300
O6          O  0.29450694  0.22196705  0.05053205    -0.66900
Ni7        Ni  0.24909540  0.30311703  0.90315588     1.34900
C8          C  0.30861636  0.23661329  0.00229812     0.84200
O9          O  0.26008387  0.30975366  0.02642792    -0.79800
O10         O  0.25445707  0.33107761  0.94301948    -0.90100
C11         C  0.24886615  0.24438473  0.13877526     0.83800
O12         O  0.20621017  0.27962313  0.93458226    -0.68300
O13         O  0.24207032  0.17254152  0.04724936    -0.87600
C14         C  0.19212144  0.26579374  0.98288237     0.84600
C15         C  0.25903393  0.33191164  0.98988478     1.06200
H16         H  0.21533562  0.21539947  0.03725666     0.38000
O17         O  0.23783844  0.22682842  0.03120443    -1.10300
O18         O  0.29514144  0.24387082  0.96359694    -0.66900
Ni19       Ni  0.25268952  0.23705476  0.95673336     1.26300
O20         O  0.20615903  0.26164716  0.02248562    -0.67200
O21         O  0.24141934  0.19484059  0.96104431    -0.79400
C22         C  0.25421306  0.26201194  0.84642737     0.84000
O23         O  0.26592129  0.24871273  0.88131695    -0.66600
Ni24       Ni  0.25180684  0.20255500  0.08379397     1.27400
Ni25       Ni  0.24866468  0.26812552  0.02960677     1.26100
H26         H  0.28605400  0.29023387  0.94856863     0.38500
O27         O  0.24111391  0.27462558  0.36039146    -0.81400
O28         O  0.23073464  0.25153950  0.60768275    -0.66100
O29         O  0.26229110  0.27521047  0.45895611    -1.12700
C30         C  0.23963763  0.16904256  0.50069777     1.05500
O31         O  0.25624012  0.22337949  0.63293030    -0.79300
O32         O  0.29126818  0.21862578  0.55786124    -0.66900
Ni33       Ni  0.24923410  0.30021469  0.40574115     1.34900
C34         C  0.30664719  0.23383410  0.51055492     0.84200
O35         O  0.25630808  0.30574214  0.53022844    -0.79800
O36         O  0.25629180  0.32921160  0.44422607    -0.90100
C37         C  0.24362126  0.23976549  0.64225298     0.83800
O38         O  0.20586822  0.27901753  0.43572954    -0.68300
O39         O  0.24126322  0.16875429  0.54903158    -0.87600
C40         C  0.19072361  0.26362598  0.48319697     0.84600
C41         C  0.25843148  0.32917292  0.49227568     1.06200
H42         H  0.21292934  0.21140109  0.53828681     0.38000
O43         O  0.23536472  0.22278772  0.53388667    -1.10300
O44         O  0.29402488  0.24025536  0.46997099    -0.66900
Ni45       Ni  0.25196110  0.23392480  0.45986407     1.26300
O46         O  0.20362198  0.25736791  0.52333518    -0.67200
O47         O  0.24109588  0.19222411  0.46300855    -0.79400
C48         C  0.25460681  0.25923196  0.34974360     0.84000
O49         O  0.26683733  0.24652341  0.38454568    -0.66600
Ni50       Ni  0.24803672  0.19765582  0.58761984     1.27400
Ni51       Ni  0.24567351  0.26405649  0.53294599     1.26100
H52         H  0.28473329  0.28660787  0.45443595     0.38500
O53         O  0.46772211  0.23618983  0.12762884    -0.81400
O54         O  0.48150127  0.24257070  0.88846157    -0.66100
O55         O  0.48820534  0.22614500  0.03650024    -1.12700
C56         C  0.06566777  0.33065152  0.97723137     1.05500
O57         O  0.03274169  0.26464863  0.86540541    -0.79300
O58         O  0.07145298  0.27488988  0.93542147    -0.66900
Ni59       Ni  0.45196881  0.20620894  0.09113280     1.34900
C60         C  0.07169652  0.26234886  0.98430111     0.84200
O61         O  0.45449443  0.19122418  0.97406519    -0.79800
O62         O  0.43249272  0.17397817  0.06060830    -0.90100
C63         C  0.00578819  0.25262727  0.85387617     0.83800
O64         O  0.42922619  0.22723689  0.05661248    -0.68300
O65         O  0.06751481  0.32768690  0.93091885    -0.87600
C66         C  0.42888487  0.23966787  0.00776321     0.84600
C67         C  0.43439201  0.17036405  0.01482388     1.06200
H68         H  0.00095239  0.28793941  0.94792307     0.38000
O69         O  0.01185522  0.27519608  0.95531667    -1.10300
O70         O  0.05159377  0.25784285  0.02273433    -0.66900
Ni71       Ni  0.01679026  0.26769918  0.02860366     1.26300
O72         O  0.44834905  0.24327620  0.96908639    -0.67200
O73         O  0.04561830  0.30993382  0.01819476    -0.79400
C74         C  0.49503086  0.24835541  0.13798282     0.84000
O75         O  0.01882669  0.25830988  0.10296842    -0.66600
Ni76       Ni  0.04816631  0.29520144  0.90079839     1.27400
Ni77       Ni  0.48325341  0.23349084  0.96321411     1.26100
H78         H  0.49907907  0.21337583  0.04397116     0.38500
O79         O  0.46726880  0.23881726  0.62286062    -0.81400
O80         O  0.48061227  0.24488064  0.38858840    -0.66100
O81         O  0.48928097  0.22756037  0.53549716    -1.12700
C82         C  0.06775015  0.33018819  0.48159548     1.05500
O83         O  0.03183474  0.26946595  0.36028737    -0.79300
O84         O  0.06691185  0.26869320  0.43659734    -0.66900
Ni85       Ni  0.45392127  0.20640215  0.59159287     1.34900
C86         C  0.07003885  0.26035762  0.48523810     0.84200
O87         O  0.45207091  0.19309899  0.47458308    -0.79800
O88         O  0.43772983  0.17248501  0.56455198    -0.90100
C89         C  0.00411996  0.25591768  0.35223168     0.83800
O90         O  0.42698978  0.22208622  0.55725835    -0.68300
O91         O  0.07224836  0.32493361  0.43813555    -0.87600
C92         C  0.42774448  0.23781969  0.50973917     0.84600
C93         C  0.43513019  0.17089354  0.51747662     1.06200
H94         H  0.00263245  0.29026182  0.44639352     0.38000
O95         O  0.01274868  0.27681745  0.45485062    -1.10300
O96         O  0.05296474  0.26073424  0.52307920    -0.66900
Ni97       Ni  0.01700238  0.26922364  0.52848378     1.26300
O98         O  0.44963219  0.24655281  0.47097533    -0.67200
O99         O  0.04431989  0.31152805  0.51866033    -0.79400
C100        C  0.49359271  0.24945950  0.63705325     0.84000
O101        O  0.01824393  0.25983741  0.60338567    -0.66600
Ni102      Ni  0.04984506  0.29569978  0.40262292     1.27400
Ni103      Ni  0.48312127  0.23526950  0.46296605     1.26100
H104        H  0.50081007  0.21539862  0.54129194     0.38500
O105        O  0.25957000  0.03287036  0.86416081    -0.81400
O106        O  0.25903017  0.01456438  0.10973028    -0.66100
O107        O  0.27236076  0.01281101  0.96817447    -1.12700
C108        C  0.17020703  0.43185991  0.01016300     1.05500
O109        O  0.23591040  0.46368609  0.13910497    -0.79300
O110        O  0.22728996  0.42754097  0.07670740    -0.66900
Ni111      Ni  0.28833262  0.05069661  0.90869158     1.34900
C112        C  0.24137585  0.43039814  0.03235064     0.84200
O113        O  0.30905629  0.04320414  0.03191985    -0.79800
O114        O  0.32015059  0.07225371  0.94525320    -0.90100
C115        C  0.24718952  0.49026543  0.14451577     0.83800
O116        O  0.26173077  0.06707884  0.92989356    -0.68300
O117        O  0.17243907  0.42951906  0.05907318    -0.87600
C118        C  0.25306111  0.06656762  0.97649863     0.84600
C119        C  0.32688951  0.06686523  0.99238080     1.06200
H120        H  0.21112795  0.49644877  0.03352411     0.38000
O121        O  0.22455727  0.48632847  0.03512046    -1.10300
O122        O  0.24588950  0.45212651  0.98922132    -0.66900
Ni123      Ni  0.23246047  0.48389345  0.96579845     1.26300
O124        O  0.25517578  0.04813558  0.01879035    -0.67200
O125        O  0.19100639  0.45285012  0.97039358    -0.79400
C126        C  0.24862975  0.00551562  0.86139798     0.84000
O127        O  0.24234740  0.48367432  0.89592300    -0.66600
Ni128      Ni  0.20542207  0.44867759  0.09551899     1.27400
Ni129      Ni  0.26659508  0.01453984  0.03856864     1.26100
H130        H  0.28657316  0.00376623  0.96674541     0.38500
O131        O  0.26088185  0.03245611  0.36639049    -0.81400
O132        O  0.26066230  0.01534660  0.60793613    -0.66100
O133        O  0.27532200  0.01217041  0.46801700    -1.12700
C134        C  0.17369095  0.43381695  0.50828519     1.05500
O135        O  0.23815345  0.46579952  0.64087874    -0.79300
O136        O  0.23685800  0.43219452  0.57541929    -0.66900
Ni137      Ni  0.29202324  0.04955033  0.40739175     1.34900
C138        C  0.24486249  0.43126305  0.52977394     0.84200
O139        O  0.31122728  0.04506703  0.53069887    -0.79800
O140        O  0.32537660  0.07032827  0.44173378    -0.90100
C141        C  0.25100260  0.49317581  0.64324514     0.83800
O142        O  0.26821572  0.06862468  0.42776601    -0.68300
O143        O  0.17970116  0.42832569  0.55584652    -0.87600
C144        C  0.25673905  0.06688448  0.47346453     0.84600
C145        C  0.33053023  0.06683335  0.48970037     1.06200
H146        H  0.21491890  0.49713584  0.53482338     0.38000
O147        O  0.22835228  0.48714062  0.53467044    -1.10300
O148        O  0.24430902  0.44994686  0.48605092    -0.66900
Ni149      Ni  0.23483370  0.48496105  0.46465787     1.26300
O150        O  0.25633461  0.04747322  0.51671527    -0.67200
O151        O  0.19203604  0.45756265  0.46932000    -0.79400
C152        C  0.25162251  0.00600519  0.36089561     0.84000
O153        O  0.24297787  0.48443784  0.39418596    -0.66600
Ni154      Ni  0.21052848  0.44921450  0.59420568     1.27400
Ni155      Ni  0.26894684  0.01488886  0.53755162     1.26100
H156        H  0.28915859  0.00259057  0.46800435     0.38500
C157        C  0.23002784  0.47365834  0.74057689    -0.20800
C158        C  0.25245267  0.49743679  0.69675434    -0.07400
C159        C  0.27029741  0.02408222  0.71151876     0.13500
C160        C  0.26821114  0.02641001  0.76315160    -0.20900
C161        C  0.24803646  0.00119491  0.80771694    -0.07400
C162        C  0.22899193  0.47605966  0.79218185     0.13500
C163        C  0.20386930  0.44968511  0.83679623    -0.24200
H164        H  0.21277583  0.45303780  0.73435966     0.14800
H165        H  0.28305064  0.04816510  0.76881864     0.14800
C166        C  0.29368457  0.05203954  0.66666302    -0.24200
H167        H  0.18759052  0.43133621  0.82206662     0.05000
H168        H  0.18987202  0.45832980  0.85598314     0.08200
H169        H  0.21484614  0.43880267  0.86685244     0.08200
H170        H  0.28143488  0.06113356  0.63661569     0.08200
H171        H  0.30990394  0.04565087  0.64736297     0.08200
H172        H  0.30805696  0.07124193  0.68140571     0.05000
C173        C  0.24054129  0.47415429  0.29626807    -0.20800
C174        C  0.25104756  0.00284264  0.30642396    -0.07400
C175        C  0.26555241  0.02851815  0.25835450     0.13500
C176        C  0.26456472  0.02333955  0.20883503    -0.20900
C177        C  0.24879860  0.49371061  0.19867969    -0.07400
C178        C  0.23833527  0.46834424  0.24726162     0.13500
C179        C  0.22459821  0.43502461  0.24877289    -0.24200
H180        H  0.23315344  0.45465671  0.33299985     0.14800
H181        H  0.27535516  0.04313621  0.17253242     0.14800
C182        C  0.28254808  0.06155947  0.25792900    -0.24200
H183        H  0.21775986  0.41857029  0.29050537     0.05000
H184        H  0.24203171  0.43106763  0.22693572     0.08200
H185        H  0.20318323  0.42940101  0.23051401     0.08200
H186        H  0.30193984  0.06401863  0.28097191     0.08200
H187        H  0.26602995  0.06827602  0.27540683     0.08200
H188        H  0.29298233  0.07823439  0.21657140     0.05000
C189        C  0.11445550  0.38126273  0.44358802    -0.20800
C190        C  0.09189440  0.35891579  0.48878676    -0.07400
C191        C  0.09482987  0.36361323  0.53934053     0.13500
C192        C  0.12080494  0.38936773  0.54325126    -0.20900
C193        C  0.14443487  0.41046689  0.49866597    -0.07400
C194        C  0.14068672  0.40663506  0.44770577     0.13500
C195        C  0.16480112  0.42791998  0.39763513    -0.24200
H196        H  0.11225995  0.37832054  0.40454592     0.14800
H197        H  0.12319679  0.39240045  0.58221323     0.14800
C198        C  0.07168646  0.34129181  0.59006705    -0.24200
H199        H  0.15829669  0.42069607  0.36196562     0.05000
H200        H  0.18752891  0.42758976  0.40353437     0.08200
H201        H  0.16728953  0.45186115  0.38837997     0.08200
H202        H  0.07096484  0.31803372  0.59875704     0.08200
H203        H  0.04812386  0.33980548  0.58566943     0.08200
H204        H  0.07806226  0.34878718  0.62552819     0.05000
C205        C  0.41348394  0.13048028  0.47269512    -0.20800
C206        C  0.40946675  0.14232662  0.51323538    -0.07400
C207        C  0.37976223  0.12802475  0.54711589     0.13500
C208        C  0.35532903  0.10257100  0.53955296    -0.20900
C209        C  0.35907204  0.09104171  0.49866804    -0.07400
C210        C  0.38865181  0.10499768  0.46496319     0.13500
C211        C  0.39433631  0.09289656  0.42145011    -0.24200
H212        H  0.43604061  0.14138425  0.44667052     0.14800
H213        H  0.33245924  0.09256691  0.56408606     0.14800
C214        C  0.37260123  0.14044476  0.58928841    -0.24200
H215        H  0.38002467  0.09611086  0.39024742     0.05000
H216        H  0.41921440  0.10531245  0.40128491     0.08200
H217        H  0.38825460  0.06789527  0.43908496     0.08200
H218        H  0.37784977  0.16516032  0.57054786     0.08200
H219        H  0.38644063  0.13795763  0.62161463     0.08200
H220        H  0.34758329  0.12768494  0.60871521     0.05000
C221        C  0.02393680  0.25355796  0.71097460    -0.20800
C222        C  0.49560385  0.24973121  0.69299542    -0.07400
C223        C  0.47022018  0.24554320  0.72928366     0.13500
C224        C  0.47426453  0.24601466  0.78148388    -0.20900
C225        C  0.00279017  0.25022910  0.79924794    -0.07400
C226        C  0.02781157  0.25341353  0.76341472     0.13500
C227        C  0.05849545  0.25579615  0.77975559    -0.24200
H228        H  0.04323488  0.25626364  0.68376834     0.14800
H229        H  0.45507180  0.24356193  0.80858759     0.14800
C230        C  0.43884918  0.24100026  0.71387176    -0.24200
H231        H  0.07402291  0.25554239  0.74765767     0.05000
H232        H  0.05416226  0.23577737  0.81594699     0.08200
H233        H  0.07134028  0.27788076  0.78787716     0.08200
H234        H  0.42773207  0.21904607  0.70461849     0.08200
H235        H  0.44176287  0.26089917  0.67856531     0.08200
H236        H  0.42248551  0.23939242  0.74691128     0.02600
C237        C  0.47413891  0.22858865  0.23526434    -0.20800
C238        C  0.49826660  0.25083418  0.19221192    -0.07400
C239        C  0.02405455  0.27433927  0.20256156     0.13500
C240        C  0.02468554  0.27545008  0.25493127    -0.20900
C241        C  0.00050709  0.25330042  0.29805098    -0.07400
C242        C  0.47502095  0.22943252  0.28787359     0.13500
C243        C  0.44907860  0.20391647  0.33236724    -0.24200
H244        H  0.45453066  0.21004142  0.22782532     0.14800
H245        H  0.04437611  0.29401271  0.26215514     0.14800
C246        C  0.05072193  0.29917031  0.15849480    -0.24200
H247        H  0.43199660  0.18617055  0.31741062     0.05000
H248        H  0.43605371  0.21365297  0.35082216     0.08200
H249        H  0.45898104  0.19204732  0.36328021     0.08200
H250        H  0.04159295  0.31138815  0.12670007     0.08200
H251        H  0.06337146  0.28871025  0.14117973     0.08200
H252        H  0.06799862  0.31674758  0.17351652     0.05000
C253        C  0.11269487  0.40282466  0.01477506    -0.20800
C254        C  0.14321505  0.40723210  0.99926978    -0.07400
C255        C  0.14748195  0.38623473  0.97727292     0.13500
C256        C  0.12147066  0.36237759  0.96944718    -0.20900
C257        C  0.09107693  0.35799213  0.98439325    -0.07400
C258        C  0.08643800  0.37832498  0.00749601     0.13500
C259        C  0.05412512  0.37477014  0.02284241    -0.24200
H260        H  0.10944207  0.41854865  0.03257872     0.14800
H261        H  0.12495070  0.34619242  0.95311248     0.14800
C262        C  0.17874302  0.38672755  0.96443223    -0.24200
H263        H  0.05475918  0.39307622  0.03918085     0.05000
H264        H  0.03981626  0.35195715  0.05397911     0.08200
H265        H  0.04272521  0.37644425  0.98691888     0.08200
H266        H  0.17871657  0.36513613  0.99093474     0.08200
H267        H  0.19855019  0.40653734  0.96987712     0.08200
H268        H  0.18279353  0.38763655  0.92214551     0.05000
C269        C  0.38102006  0.10912268  0.95704404    -0.20800
C270        C  0.35653987  0.08998132  0.00118148    -0.07400
C271        C  0.36004274  0.09520303  0.05112538     0.13500
C272        C  0.38694770  0.12010003  0.05457931    -0.20900
C273        C  0.41030327  0.14099644  0.00936369    -0.07400
C274        C  0.40766962  0.13462485  0.96010686     0.13500
C275        C  0.43204316  0.15469817  0.90993404    -0.24200
H276        H  0.37875246  0.10479305  0.91904445     0.14800
H277        H  0.38873448  0.12411733  0.09284196     0.14800
C278        C  0.33481788  0.07621669  0.10041081    -0.24200
H279        H  0.42658423  0.14514024  0.87639504     0.05000
H280        H  0.45519915  0.15621139  0.91800033     0.08200
H281        H  0.43315134  0.17820117  0.89603067     0.08200
H282        H  0.31286827  0.07763230  0.09144554     0.08200
H283        H  0.34104712  0.08468293  0.13497100     0.08200
H284        H  0.33093919  0.05172520  0.11323715     0.05000
C285        C  0.27338309  0.41171985  0.48034590    -0.20800
C286        C  0.25329456  0.40625379  0.52643989    -0.07400
C287        C  0.23840641  0.37584041  0.56437656     0.13500
C288        C  0.24260227  0.35176751  0.55357595    -0.20900
C289        C  0.26068612  0.35683027  0.50552852    -0.07400
C290        C  0.27733660  0.38750965  0.46944006     0.13500
C291        C  0.29949388  0.39503078  0.41961553    -0.24200
H292        H  0.28523644  0.43496474  0.45159638     0.14800
H293        H  0.22994311  0.32833082  0.58142469     0.14800
C294        C  0.21629307  0.36780928  0.61466049    -0.24200
H295        H  0.31233916  0.42042358  0.39854419     0.05000
H296        H  0.28651803  0.38447348  0.39087753     0.08200
H297        H  0.31699937  0.38624076  0.43071392     0.08200
H298        H  0.19668431  0.37343862  0.60393335     0.08200
H299        H  0.22898858  0.38087799  0.64083826     0.08200
H300        H  0.20603048  0.34274431  0.63839859     0.05000
C301        C  0.22247687  0.11213876  0.52719860    -0.20800
C302        C  0.23807649  0.14153641  0.48778958    -0.07400
C303        C  0.25564086  0.14464026  0.44017901     0.13500
C304        C  0.25910062  0.11904984  0.43526364    -0.20900
C305        C  0.24593981  0.09034572  0.47677916    -0.07400
C306        C  0.22595580  0.08645311  0.52230902     0.13500
C307        C  0.20823870  0.05557336  0.56611286    -0.24200
H308        H  0.20846870  0.10954128  0.56317630     0.14800
H309        H  0.27402585  0.12220260  0.39994579     0.14800
C310        C  0.27283303  0.17529803  0.39582239    -0.24200
H311        H  0.19144927  0.05636174  0.59525759     0.05000
H312        H  0.22453911  0.04884482  0.58917008     0.08200
H313        H  0.19468441  0.03759549  0.54826245     0.08200
H314        H  0.28956785  0.19261989  0.41192177     0.08200
H315        H  0.25589111  0.18342716  0.37829625     0.08200
H316        H  0.28639000  0.17363380  0.36270518     0.05000
C317        C  0.14406305  0.26053342  0.53392687    -0.20800
C318        C  0.15671968  0.25450743  0.49201387    -0.07400
C319        C  0.13762623  0.24367593  0.45558578     0.13500
C320        C  0.10776222  0.24254032  0.45839239    -0.20900
C321        C  0.09651275  0.25240517  0.49605878    -0.07400
C322        C  0.11429545  0.25988159  0.53629728     0.13500
C323        C  0.10332324  0.26935653  0.57957030    -0.24200
H324        H  0.15852878  0.26821635  0.56249784     0.14800
H325        H  0.09388638  0.23576162  0.42859756     0.14800
C326        C  0.14864782  0.23357990  0.41326108    -0.24200
H327        H  0.12029091  0.27439649  0.60728681     0.05000
H328        H  0.08076922  0.25030482  0.60393070     0.08200
H329        H  0.10044716  0.29066749  0.56122020     0.08200
H330        H  0.15620411  0.21555603  0.43250865     0.08200
H331        H  0.16833689  0.25356422  0.38322946     0.08200
H332        H  0.12978690  0.22357772  0.39113006     0.05000
C333        C  0.38865326  0.25291478  0.53954526    -0.20800
C334        C  0.40078398  0.24479779  0.50027101    -0.07400
C335        C  0.38378264  0.23818800  0.45892549     0.13500
C336        C  0.35401634  0.23754615  0.46048677    -0.20900
C337        C  0.34062494  0.24261732  0.50300080    -0.07400
C338        C  0.35885526  0.25186653  0.54162253     0.13500
C339        C  0.34701088  0.26026093  0.58575349    -0.24200
H340        H  0.40191479  0.25841519  0.57073658     0.14800
H341        H  0.34021711  0.23074083  0.43064042     0.14800
C342        C  0.39573738  0.22944401  0.41557052    -0.24200
H343        H  0.36554869  0.26979005  0.60876926     0.05000
H344        H  0.32751195  0.23951627  0.61483697     0.08200
H345        H  0.33902123  0.27817012  0.56815668     0.08200
H346        H  0.39938247  0.20857866  0.43391889     0.08200
H347        H  0.41815522  0.24897101  0.39171282     0.08200
H348        H  0.37903268  0.22407399  0.38754539     0.05000
C349        C  0.27247468  0.24814749  0.71694702    -0.20800
C350        C  0.24601357  0.24646498  0.69369940    -0.07400
C351        C  0.22284033  0.25088575  0.72028837     0.13500
C352        C  0.22635539  0.25583090  0.76995246    -0.20900
C353        C  0.25249257  0.25681650  0.79374005    -0.07400
C354        C  0.27618287  0.25353718  0.76623336     0.13500
C355        C  0.30599340  0.25696154  0.78720190    -0.24200
H356        H  0.29067444  0.24559046  0.69600975     0.14800
H357        H  0.20825893  0.25858647  0.79075732     0.14800
C358        C  0.19392857  0.24956226  0.69769221    -0.24200
H359        H  0.32273740  0.25573959  0.75863722     0.05000
H360        H  0.30094401  0.23813221  0.82555462     0.08200
H361        H  0.31756045  0.27975215  0.79356999     0.08200
H362        H  0.18122952  0.22702382  0.69089766     0.08200
H363        H  0.20045774  0.26886921  0.65929010     0.08200
H364        H  0.17763574  0.25185402  0.72541661     0.05000
C365        C  0.27599661  0.24981442  0.21677605    -0.20800
C366        C  0.25001060  0.24880859  0.19235854    -0.07400
C367        C  0.22569143  0.25108002  0.22035235     0.13500
C368        C  0.22791047  0.25392933  0.27170363    -0.20900
C369        C  0.25385206  0.25492170  0.29613306    -0.07400
C370        C  0.27841626  0.25315041  0.26787140     0.13500
C371        C  0.30785705  0.25620143  0.28990244    -0.24200
H372        H  0.29489417  0.24848340  0.19529070     0.14800
H373        H  0.20900804  0.25527678  0.29315700     0.14800
C374        C  0.19688143  0.24968728  0.19735479    -0.24200
H375        H  0.32520542  0.25587976  0.26115568     0.05000
H376        H  0.30247427  0.23673355  0.32737169     0.08200
H377        H  0.31884769  0.27845311  0.29825485     0.08200
H378        H  0.18533090  0.22793924  0.18755897     0.08200
H379        H  0.20330644  0.27001398  0.16062543     0.08200
H380        H  0.17960714  0.25009449  0.22612600     0.05000
C381        C  0.27084645  0.41280680  0.98098138    -0.20800
C382        C  0.25109849  0.40631036  0.02841457    -0.07400
C383        C  0.23760541  0.37574422  0.06598178     0.13500
C384        C  0.24297060  0.35269639  0.05357546    -0.20900
C385        C  0.26025953  0.35877101  0.00404854    -0.07400
C386        C  0.27505902  0.38941102  0.96777324     0.13500
C387        C  0.29506451  0.39767235  0.91487604    -0.24200
H388        H  0.28173490  0.43610473  0.95231929     0.14800
H389        H  0.23160918  0.32911237  0.08125171     0.14800
C390        C  0.21592457  0.36628386  0.11768666    -0.24200
H391        H  0.30653284  0.42307219  0.89345125     0.05000
H392        H  0.28056839  0.38654385  0.88807608     0.08200
H393        H  0.31367498  0.38997935  0.92188596     0.08200
H394        H  0.19487194  0.36965810  0.10881165     0.08200
H395        H  0.22826168  0.38012562  0.14310392     0.08200
H396        H  0.20771346  0.34144649  0.14146022     0.05000
C397        C  0.24589389  0.11441961  0.93566132    -0.20800
C398        C  0.24220076  0.08989898  0.98193291    -0.07400
C399        C  0.23108363  0.09015866  0.03252406     0.13500
C400        C  0.22746113  0.11601596  0.03555669    -0.20900
C401        C  0.23507604  0.14225702  0.99017763    -0.07400
C402        C  0.24240924  0.14046314  0.93895443     0.13500
C403        C  0.24773198  0.16607330  0.88754187    -0.24200
H404        H  0.25323824  0.11411847  0.89654571     0.14800
H405        H  0.22028447  0.11637871  0.07473225     0.14800
C406        C  0.22390903  0.06411078  0.08443865    -0.24200
H407        H  0.25242866  0.16026754  0.85150756     0.05000
H408        H  0.26822361  0.18759579  0.88623046     0.08200
H409        H  0.22664240  0.17016397  0.88480458     0.08200
H410        H  0.24581971  0.06325816  0.09507982     0.08200
H411        H  0.20734712  0.04170722  0.08057162     0.08200
H412        H  0.21291035  0.06733743  0.11863467     0.05000
C413        C  0.14578071  0.26356406  0.03315028    -0.20800
C414        C  0.15804580  0.25628473  0.99261554    -0.07400
C415        C  0.13868948  0.24474522  0.95687261     0.13500
C416        C  0.10892157  0.24379758  0.95921868    -0.20900
C417        C  0.09806387  0.25453845  0.99560491    -0.07400
C418        C  0.11615831  0.26324106  0.03471003     0.13500
C419        C  0.10566404  0.27467761  0.07524587    -0.24200
H420        H  0.16049758  0.27215074  0.06079302     0.14800
H421        H  0.09484203  0.23660550  0.92988881     0.14800
C422        C  0.14944150  0.23410403  0.91513559    -0.24200
H423        H  0.12309870  0.28134396  0.10164082     0.05000
H424        H  0.08338243  0.25608522  0.10123856     0.08200
H425        H  0.10230156  0.29538928  0.05430823     0.08200
H426        H  0.15777203  0.21674280  0.93458695     0.08200
H427        H  0.16845211  0.25400650  0.88378133     0.08200
H428        H  0.13020455  0.22311440  0.89442598     0.05000
C429        C  0.38490803  0.23583195  0.95893825    -0.20800
C430        C  0.40248028  0.24729516  0.99603812    -0.07400
C431        C  0.39104143  0.26030640  0.02784587     0.13500
C432        C  0.36122049  0.25897890  0.02508851    -0.20900
C433        C  0.34228561  0.24461503  0.99199691    -0.07400
C434        C  0.35467499  0.23361918  0.95728631     0.13500
C435        C  0.33602406  0.21684349  0.92161252    -0.24200
H436        H  0.39353782  0.22572541  0.93463413     0.14800
H437        H  0.35183297  0.26760153  0.05133979     0.14800
C438        C  0.40991008  0.27520341  0.06536193    -0.24200
H439        H  0.33453249  0.19317904  0.93283348     0.05000
H440        H  0.34786879  0.22964867  0.87909786     0.08200
H441        H  0.31187497  0.21420992  0.92455189     0.08200
H442        H  0.43323280  0.29355499  0.04271728     0.08200
H443        H  0.41282355  0.25771407  0.09843443     0.08200
H444        H  0.39831542  0.28610375  0.08403852     0.05000
O445        O  0.24326437  0.77892250  0.85555459    -0.81400
O446        O  0.23441853  0.75413055  0.10447872    -0.66100
O447        O  0.26476910  0.77903461  0.95438110    -1.12700
C448        C  0.24090179  0.67203337  0.99552607     1.05500
O449        O  0.26244859  0.72825330  0.12540026    -0.79300
O450        O  0.29518242  0.72094035  0.04970171    -0.66900
Ni451      Ni  0.25129744  0.80408661  0.90214260     1.34900
C452        C  0.31016191  0.73681810  0.00222247     0.84200
O453        O  0.25920358  0.80889937  0.02728218    -0.79800
O454        O  0.25821847  0.83257637  0.94196505    -0.90100
C455        C  0.24790466  0.74235477  0.13796743     0.83800
O456        O  0.20799413  0.78275931  0.93282494    -0.68300
O457        O  0.24264382  0.67198078  0.04380047    -0.87600
C458        C  0.19317939  0.76770012  0.98061541     0.84600
C459        C  0.26066274  0.83232463  0.99012114     1.06200
H460        H  0.21637408  0.71499578  0.03355680     0.38000
O461        O  0.23881810  0.72651628  0.02873360    -1.10300
O462        O  0.29737861  0.74501333  0.96301921    -0.66900
Ni463      Ni  0.25491746  0.73788053  0.95448369     1.26300
O464        O  0.20635084  0.76097599  0.02028029    -0.67200
O465        O  0.24441606  0.69599085  0.95714423    -0.79400
C466        C  0.25615031  0.76298084  0.84485233     0.84000
O467        O  0.26906129  0.75076711  0.87896153    -0.66600
Ni468      Ni  0.25210987  0.70159636  0.08146285     1.27400
Ni469      Ni  0.24869510  0.76744425  0.02890843     1.26100
H470        H  0.28720384  0.79064986  0.94947015     0.38500
O471        O  0.24004932  0.77440225  0.35839266    -0.81400
O472        O  0.23131107  0.75082796  0.60678376    -0.66100
O473        O  0.26182363  0.77518635  0.45708718    -1.12700
C474        C  0.24215776  0.67033405  0.49426939     1.05500
O475        O  0.25502317  0.72091585  0.63268137    -0.79300
O476        O  0.29240161  0.72085212  0.55471456    -0.66900
Ni477      Ni  0.24759217  0.79951226  0.40489608     1.34900
C478        C  0.30745327  0.73593693  0.50715144     0.84200
O479        O  0.25616381  0.80506368  0.52952702    -0.79800
O480        O  0.25370517  0.82782138  0.44460694    -0.90100
C481        C  0.24332081  0.73806966  0.64177700     0.83800
O482        O  0.20449181  0.77721425  0.43595118    -0.68300
O483        O  0.24469660  0.67010179  0.54238151    -0.87600
C484        C  0.18999818  0.76246985  0.48391320     0.84600
C485        C  0.25670336  0.82801882  0.49237645     1.06200
H486        H  0.21320871  0.71083911  0.53605356     0.38000
O487        O  0.23563555  0.72240087  0.53141961    -1.10300
O488        O  0.29445213  0.74120342  0.46655830    -0.66900
Ni489      Ni  0.25222312  0.73433302  0.45679381     1.26300
O490        O  0.20350450  0.75674308  0.52343693    -0.67200
O491        O  0.24207436  0.69310835  0.45781939    -0.79400
C492        C  0.25406778  0.75952074  0.34727921     0.84000
O493        O  0.26718618  0.74771563  0.38146692    -0.66600
Ni494      Ni  0.24914904  0.69733274  0.58382535     1.27400
Ni495      Ni  0.24574634  0.76354429  0.53157360     1.26100
H496        H  0.28424476  0.78701898  0.45190699     0.38500
O497        O  0.46690966  0.72756869  0.14441330    -0.81400
O498        O  0.48245108  0.74054735  0.89801620    -0.66100
O499        O  0.48819720  0.72424774  0.04607538    -1.12700
C500        C  0.06349568  0.82903959  0.99316286     1.05500
O501        O  0.03239378  0.77248534  0.86573532    -0.79300
O502        O  0.06791853  0.77319920  0.94134861    -0.66900
Ni503      Ni  0.44980489  0.70458760  0.09662166     1.34900
C504        C  0.07082804  0.76305230  0.98968741     0.84200
O505        O  0.45880902  0.68915885  0.98168934    -0.79800
O506        O  0.42754224  0.67740572  0.05753664    -0.90100
C507        C  0.00588794  0.75390030  0.86055571     0.83800
O508        O  0.43490664  0.73388695  0.06277419    -0.68300
O509        O  0.06737208  0.82586223  0.94776052    -0.87600
C510        C  0.43094927  0.74069054  0.01435282     0.84600
C511        C  0.43381166  0.67138009  0.01593607     1.06200
H512        H  0.99782388  0.78588064  0.95847086     0.38000
O513        O  0.01012373  0.77449952  0.96503233    -1.10300
O514        O  0.05238862  0.76004287  0.02957235    -0.66900
Ni515      Ni  0.01514825  0.76647288  0.03878665     1.26300
O516        O  0.44705630  0.73842118  0.97757774    -0.67200
O517        O  0.04115529  0.80904949  0.03117639    -0.79400
C518        C  0.49446399  0.74311659  0.15115604     0.84000
O519        O  0.01785318  0.75658367  0.11284566    -0.66600
Ni520      Ni  0.04717902  0.79729789  0.91095230     1.27400
Ni521      Ni  0.48432658  0.73198288  0.97223643     1.26100
H522        H  0.49933709  0.71178854  0.05503726     0.38500
O523        O  0.46637122  0.73642944  0.63407978    -0.81400
O524        O  0.48079877  0.74252596  0.39879195    -0.66100
O525        O  0.48577526  0.72389932  0.54680491    -1.12700
C526        C  0.06404386  0.82896978  0.49251351     1.05500
O527        O  0.03240744  0.76695358  0.37350037    -0.79300
O528        O  0.07096014  0.77633810  0.44471387    -0.66900
Ni529      Ni  0.44935059  0.70565652  0.59995805     1.34900
C530        C  0.07035605  0.76100918  0.49245217     0.84200
O531        O  0.45212821  0.69050348  0.48308467    -0.79800
O532        O  0.42940300  0.67353738  0.56973318    -0.90100
C533        C  0.00521443  0.75316104  0.36359874     0.83800
O534        O  0.42730427  0.72731003  0.56435481    -0.68300
O535        O  0.06492369  0.82773160  0.44479678    -0.87600
C536        C  0.42730710  0.73921253  0.51509029     0.84600
C537        C  0.43119463  0.67031163  0.52367015     1.06200
H538        H  0.99972372  0.78678589  0.46170579     0.38000
O539        O  0.01076449  0.77416153  0.46713909    -1.10300
O540        O  0.04959211  0.75409632  0.53195761    -0.66900
Ni541      Ni  0.01571408  0.76493682  0.54052174     1.26300
O542        O  0.44739235  0.74286714  0.47765612    -0.67200
O543        O  0.04540605  0.80631868  0.53282849    -0.79400
C544        C  0.49258811  0.74438083  0.64911485     0.84000
O545        O  0.01711749  0.75355806  0.61539039    -0.66600
Ni546      Ni  0.04682165  0.79614058  0.41210291     1.27400
Ni547      Ni  0.48173700  0.73247815  0.47343626     1.26100
H548        H  0.49564463  0.71021903  0.55464278     0.38500
O549        O  0.26274136  0.53456227  0.85697015    -0.81400
O550        O  0.25796700  0.51448594  0.10374628    -0.66100
O551        O  0.27374420  0.51429965  0.96224550    -1.12700
C552        C  0.16917009  0.93052797  0.02231562     1.05500
O553        O  0.23951666  0.96403672  0.14454251    -0.79300
O554        O  0.23023320  0.92759011  0.08276159    -0.66900
Ni555      Ni  0.28938754  0.55250656  0.90380296     1.34900
C556        C  0.24238286  0.93008373  0.03702182     0.84200
O557        O  0.30914413  0.54408342  0.02790524    -0.79800
O558        O  0.31940074  0.57449344  0.94246982    -0.90100
C559        C  0.24910411  0.99038955  0.15050530     0.83800
O560        O  0.26029524  0.56634230  0.92443479    -0.68300
O561        O  0.17366932  0.92748745  0.07051566    -0.87600
C562        C  0.25202604  0.56639805  0.97076992     0.84600
C563        C  0.32658020  0.56858788  0.98920242     1.06200
H564        H  0.21076805  0.99493121  0.04391216     0.38000
O565        O  0.22445195  0.98521304  0.04356421    -1.10300
O566        O  0.24406037  0.95074741  0.99433858    -0.66900
Ni567      Ni  0.23053770  0.98267553  0.97379754     1.26300
O568        O  0.25528934  0.54903413  0.01324582    -0.67200
O569        O  0.18848218  0.95204237  0.98122491    -0.79400
C570        C  0.25206428  0.50724979  0.85416977     0.84000
O571        O  0.23847866  0.98208516  0.90341805    -0.66600
Ni572      Ni  0.20767718  0.94763839  0.10414336     1.27400
Ni573      Ni  0.26664076  0.51532864  0.03267484     1.26100
H574        H  0.28836452  0.50568928  0.96103827     0.38500
O575        O  0.26648022  0.53517285  0.35674752    -0.81400
O576        O  0.26222755  0.51657824  0.60119985    -0.66100
O577        O  0.27728057  0.51299760  0.46153064    -1.12700
C578        C  0.17097297  0.93183085  0.51900057     1.05500
O579        O  0.23974242  0.96457551  0.64583586    -0.79300
O580        O  0.23169117  0.92729699  0.58332721    -0.66900
Ni581      Ni  0.29565680  0.55099588  0.40150930     1.34900
C582        C  0.24256875  0.92850706  0.53755616     0.84200
O583        O  0.31286996  0.54409503  0.52647568    -0.79800
O584        O  0.32769886  0.57124615  0.43839275    -0.90100
C585        C  0.25056548  0.99169854  0.64957912     0.83800
O586        O  0.27121548  0.57003856  0.42005823    -0.68300
O587        O  0.17600907  0.92821412  0.56717274    -0.87600
C588        C  0.25995396  0.56864758  0.46566662     0.84600
C589        C  0.33211456  0.56667632  0.48676618     1.06200
H590        H  0.21321729  0.99492678  0.54160665     0.38000
O591        O  0.22697341  0.98522674  0.54205054    -1.10300
O592        O  0.24478401  0.94920210  0.49440425    -0.66900
Ni593      Ni  0.23332706  0.98255904  0.47249087     1.26300
O594        O  0.25962783  0.54934819  0.50908202    -0.67200
O595        O  0.19093331  0.95323084  0.47863155    -0.79400
C596        C  0.25423164  0.50828235  0.35271312     0.84000
O597        O  0.24174326  0.98194548  0.40194364    -0.66600
Ni598      Ni  0.20919777  0.94798534  0.60284062     1.27400
Ni599      Ni  0.27056218  0.51558397  0.53123369     1.26100
H600        H  0.29037032  0.50259614  0.46194698     0.38500
C601        C  0.23108212  0.97037078  0.74808383    -0.20800
C602        C  0.25121100  0.99564589  0.70351973    -0.07400
C603        C  0.27463691  0.52452371  0.70520518     0.13500
C604        C  0.27356269  0.52692375  0.75689475    -0.20900
C605        C  0.25107712  0.50313680  0.80061279    -0.07400
C606        C  0.22932673  0.97257904  0.79991566     0.13500
C607        C  0.20722445  0.94413566  0.84538110    -0.24200
H608        H  0.21630526  0.94861943  0.74234085     0.14800
H609        H  0.29074726  0.54751261  0.76331528     0.14800
C610        C  0.29985569  0.55089919  0.66066591    -0.24200
H611        H  0.19343413  0.92454402  0.83107207     0.05000
H612        H  0.19042565  0.94935606  0.86601983     0.08200
H613        H  0.22071039  0.93619742  0.87421205     0.08200
H614        H  0.28909934  0.56208446  0.63051189     0.08200
H615        H  0.31376770  0.54217307  0.64147983     0.08200
H616        H  0.31623521  0.56909551  0.67559355     0.05000
C617        C  0.23628960  0.97287572  0.30273300    -0.20800
C618        C  0.25220335  0.50440155  0.29887367    -0.07400
C619        C  0.26223396  0.52971168  0.25025667     0.13500
C620        C  0.26041349  0.52391158  0.20136608    -0.20900
C621        C  0.24982485  0.99339890  0.20509391    -0.07400
C622        C  0.23517784  0.96773443  0.25312503     0.13500
C623        C  0.21767046  0.93480646  0.25330559    -0.24200
H624        H  0.22536062  0.95307610  0.33909714     0.14800
H625        H  0.26798176  0.54347623  0.16468874     0.14800
C626        C  0.27482796  0.56305198  0.24842162    -0.24200
H627        H  0.20707550  0.91811411  0.29460572     0.05000
H628        H  0.23385641  0.92778501  0.23567628     0.08200
H629        H  0.19834324  0.93278886  0.23022647     0.08200
H630        H  0.29660908  0.56972020  0.26559547     0.08200
H631        H  0.25700089  0.56621330  0.27095537     0.08200
H632        H  0.28075242  0.57934205  0.20670006     0.05000
C633        C  0.10747651  0.88238415  0.45511448    -0.20800
C634        C  0.08743056  0.85778020  0.50080182    -0.07400
C635        C  0.09264932  0.86039148  0.55225377     0.13500
C636        C  0.11900843  0.88584406  0.55608894    -0.20900
C637        C  0.14081570  0.90884933  0.51046622    -0.07400
C638        C  0.13404496  0.90758434  0.45895535     0.13500
C639        C  0.15490493  0.93176177  0.40732697    -0.24200
H640        H  0.10326435  0.88130652  0.41549370     0.14800
H641        H  0.12320367  0.88696009  0.59569584     0.14800
C642        C  0.07143118  0.83639778  0.60381741    -0.24200
H643        H  0.14530821  0.92717359  0.37130636     0.05000
H644        H  0.17811164  0.93178104  0.40435491     0.08200
H645        H  0.15740204  0.95496925  0.40586379     0.08200
H646        H  0.07206730  0.81391883  0.60946110     0.08200
H647        H  0.04716020  0.83355864  0.60297215     0.08200
H648        H  0.07866052  0.84317814  0.63960116     0.05000
C649        C  0.41349235  0.62857997  0.48177104    -0.20800
C650        C  0.40640220  0.64220827  0.51702856    -0.07400
C651        C  0.37498153  0.62993422  0.54303327     0.13500
C652        C  0.35194213  0.60441961  0.53350595    -0.20900
C653        C  0.35893495  0.59094799  0.49833470    -0.07400
C654        C  0.39001514  0.60306686  0.47195332     0.13500
C655        C  0.39846549  0.58892853  0.43422990    -0.24200
H656        H  0.43740520  0.63801671  0.46166071     0.14800
H657        H  0.32781379  0.59574873  0.55174225     0.14800
C658        C  0.36479827  0.64441334  0.57850806    -0.24200
H659        H  0.38627409  0.59107893  0.39940343     0.05000
H660        H  0.42399476  0.60061447  0.41852671     0.08200
H661        H  0.39154511  0.56404747  0.45569099     0.08200
H662        H  0.37206782  0.66929114  0.55634915     0.08200
H663        H  0.37504501  0.64193135  0.61561725     0.08200
H664        H  0.33900670  0.63306388  0.59137300     0.05000
C665        C  0.02334184  0.74981996  0.72206602    -0.20800
C666        C  0.49472346  0.74475468  0.70489928    -0.07400
C667        C  0.46892507  0.73953316  0.74166133     0.13500
C668        C  0.47341903  0.74208368  0.79248502    -0.20900
C669        C  0.00237886  0.74877510  0.80832336    -0.07400
C670        C  0.02747327  0.75152390  0.77350201     0.13500
C671        C  0.05839740  0.75531154  0.79035989    -0.24200
H672        H  0.04281059  0.75262323  0.69514216     0.14800
H673        H  0.45408390  0.73930621  0.81970529     0.14800
C674        C  0.43651444  0.73152660  0.72855055    -0.24200
H675        H  0.07385286  0.75380009  0.75988489     0.05000
H676        H  0.05441839  0.73665805  0.82860878     0.08200
H677        H  0.07109832  0.77833137  0.79532211     0.08200
H678        H  0.42738001  0.70941759  0.71956533     0.08200
H679        H  0.43702564  0.75051777  0.69385722     0.08200
H680        H  0.41969851  0.72826243  0.76264708     0.02600
C681        C  0.47546967  0.72295930  0.24946580    -0.20800
C682        C  0.49876093  0.74558421  0.20544447    -0.07400
C683        C  0.02481102  0.77005256  0.21426938     0.13500
C684        C  0.02602477  0.77141609  0.26652604    -0.20900
C685        C  0.00231272  0.74929110  0.31014216    -0.07400
C686        C  0.47670811  0.72433373  0.30170936     0.13500
C687        C  0.45125898  0.69869976  0.34693411    -0.24200
H688        H  0.45597141  0.70389806  0.24304831     0.14800
H689        H  0.04549963  0.79041157  0.27317000     0.14800
C690        C  0.05075803  0.79532396  0.16950873    -0.24200
H691        H  0.43456867  0.68025702  0.33285755     0.05000
H692        H  0.43757612  0.70803024  0.36489671     0.08200
H693        H  0.46176442  0.68775714  0.37803135     0.08200
H694        H  0.04091754  0.80733510  0.13879122     0.08200
H695        H  0.06346587  0.78532204  0.15100980     0.08200
H696        H  0.06815375  0.81303454  0.18413023     0.05000
C697        C  0.11131614  0.90141628  0.02996025    -0.20800
C698        C  0.14166594  0.90564179  0.01351860    -0.07400
C699        C  0.14550935  0.88416866  0.99255737     0.13500
C700        C  0.11925240  0.85980797  0.98694388    -0.20900
C701        C  0.08896281  0.85558934  0.00239583    -0.07400
C702        C  0.08472898  0.87653249  0.02434106     0.13500
C703        C  0.05258735  0.87334410  0.03980828    -0.24200
H704        H  0.10847102  0.91764095  0.04687345     0.14800
H705        H  0.12254634  0.84346735  0.97081705     0.14800
C706        C  0.17674693  0.88513637  0.97743911    -0.24200
H707        H  0.05358458  0.89223883  0.05476263     0.05000
H708        H  0.03845927  0.85093540  0.07206811     0.08200
H709        H  0.04079928  0.87429501  0.00429750     0.08200
H710        H  0.17761658  0.86399738  0.00384449     0.08200
H711        H  0.19672472  0.90545542  0.98096146     0.08200
H712        H  0.17976294  0.88563532  0.93520550     0.05000
C713        C  0.37822419  0.61518296  0.95226765    -0.20800
C714        C  0.35632996  0.59211896  0.99784572    -0.07400
C715        C  0.36268666  0.59362684  0.04939974     0.13500
C716        C  0.38929479  0.61880080  0.05339355    -0.20900
C717        C  0.40986705  0.64294311  0.00774682    -0.07400
C718        C  0.40466298  0.64054320  0.95635769     0.13500
C719        C  0.42570468  0.66524724  0.90537144    -0.24200
H720        H  0.37414120  0.61400451  0.91264213     0.14800
H721        H  0.39346913  0.62018348  0.09290538     0.14800
C722        C  0.34114908  0.56983380  0.10070627    -0.24200
H723        H  0.41758598  0.65986163  0.86894239     0.05000
H724        H  0.44974240  0.66723007  0.90444236     0.08200
H725        H  0.42607407  0.68781253  0.90304798     0.08200
H726        H  0.31768250  0.56925095  0.10121471     0.08200
H727        H  0.34968925  0.57523156  0.13689492     0.08200
H728        H  0.33942273  0.54664271  0.10407094     0.05000
C729        C  0.26853240  0.90953944  0.48234079    -0.20800
C730        C  0.25145227  0.90397823  0.53205467    -0.07400
C731        C  0.23973587  0.87392587  0.57094582     0.13500
C732        C  0.24396494  0.85039053  0.55776645    -0.20900
C733        C  0.25854658  0.85543311  0.50632156    -0.07400
C734        C  0.27171935  0.88577263  0.46855563     0.13500
C735        C  0.28890870  0.89350753  0.41325565    -0.24200
H736        H  0.27816090  0.93245700  0.45253079     0.14800
H737        H  0.23391977  0.82723995  0.58691648     0.14800
C738        C  0.22121983  0.86560789  0.62534663    -0.24200
H739        H  0.29984040  0.91880794  0.39104459     0.05000
H740        H  0.27249786  0.88199283  0.38895564     0.08200
H741        H  0.30777753  0.88601128  0.41653966     0.08200
H742        H  0.19964253  0.86865169  0.62058544     0.08200
H743        H  0.23566989  0.88044735  0.64773600     0.08200
H744        H  0.21393744  0.84108790  0.65007361     0.05000
C745        C  0.22607271  0.61380736  0.52050703    -0.20800
C746        C  0.24071881  0.64302560  0.48059185    -0.07400
C747        C  0.25711195  0.64597477  0.43182526     0.13500
C748        C  0.26087826  0.62047669  0.42667040    -0.20900
C749        C  0.24897065  0.59206627  0.46898660    -0.07400
C750        C  0.22974666  0.58829399  0.51543758     0.13500
C751        C  0.21312663  0.55775330  0.56042036    -0.24200
H752        H  0.21271183  0.61125408  0.55718748     0.14800
H753        H  0.27499914  0.62349099  0.39048250     0.14800
C754        C  0.27261492  0.67636488  0.38640540    -0.24200
H755        H  0.19658335  0.55850833  0.59007655     0.05000
H756        H  0.23016592  0.55196492  0.58268241     0.08200
H757        H  0.19941562  0.53916762  0.54391246     0.08200
H758        H  0.28991515  0.69428402  0.40070872     0.08200
H759        H  0.25475151  0.68374226  0.37115463     0.08200
H760        H  0.28519125  0.67463413  0.35211663     0.05000
C761        C  0.14421451  0.75944098  0.53722936    -0.20800
C762        C  0.15612579  0.75373885  0.49401352    -0.07400
C763        C  0.13658793  0.74412011  0.45722453     0.13500
C764        C  0.10696281  0.74343129  0.46158059    -0.20900
C765        C  0.09644651  0.75254677  0.50109227    -0.07400
C766        C  0.11473281  0.75937883  0.54087161     0.13500
C767        C  0.10458667  0.76918726  0.58440916    -0.24200
H768        H  0.15907726  0.76655036  0.56569351     0.14800
H769        H  0.09270967  0.73774487  0.43161362     0.14800
C770        C  0.14694198  0.73515830  0.41252353    -0.24200
H771        H  0.12211953  0.77447851  0.61112941     0.05000
H772        H  0.08221834  0.75027175  0.60962267     0.08200
H773        H  0.10148014  0.79037593  0.56614603     0.08200
H774        H  0.15493646  0.71715762  0.42932611     0.08200
H775        H  0.16610397  0.75565154  0.38235198     0.08200
H776        H  0.12758854  0.72554215  0.39099338     0.05000
C777        C  0.38963862  0.75838134  0.53588529    -0.20800
C778        C  0.40112305  0.74691735  0.50162093    -0.07400
C779        C  0.38388947  0.73766700  0.46189584     0.13500
C780        C  0.35441037  0.73747569  0.46093896    -0.20900
C781        C  0.34150972  0.74558618  0.49933436    -0.07400
C782        C  0.36003938  0.75777259  0.53538341     0.13500
C783        C  0.34852252  0.76962019  0.57415680    -0.24200
H784        H  0.40309112  0.76605974  0.56554588     0.14800
H785        H  0.34025656  0.72838304  0.43308508     0.14800
C786        C  0.39504750  0.72546926  0.42339122    -0.24200
H787        H  0.36701406  0.78053334  0.59617361     0.05000
H788        H  0.32848374  0.75038494  0.60458724     0.08200
H789        H  0.34129772  0.78734999  0.55183065     0.08200
H790        H  0.39807692  0.70482978  0.44605721     0.08200
H791        H  0.41759232  0.74376949  0.39780841     0.08200
H792        H  0.37815064  0.71840993  0.39635635     0.05000
C793        C  0.27216583  0.74585501  0.71703789    -0.20800
C794        C  0.24584389  0.74460835  0.69365623    -0.07400
C795        C  0.22341128  0.75018074  0.71977984     0.13500
C796        C  0.22757794  0.75600207  0.76881106    -0.20900
C797        C  0.25380487  0.75702067  0.79241905    -0.07400
C798        C  0.27675596  0.75250646  0.76529611     0.13500
C799        C  0.30696978  0.75632769  0.78501971    -0.24200
H800        H  0.28982711  0.74240049  0.69656216     0.14800
H801        H  0.20995961  0.75957456  0.78913315     0.14800
C802        C  0.19462249  0.74931654  0.69722074    -0.24200
H803        H  0.32298909  0.75398882  0.75684321     0.05000
H804        H  0.30244948  0.73844524  0.82433468     0.08200
H805        H  0.31916446  0.77970064  0.78896689     0.08200
H806        H  0.18129013  0.72660929  0.69135882     0.08200
H807        H  0.20135840  0.76831224  0.65833224     0.08200
H808        H  0.17885464  0.75246066  0.72451667     0.05000
C809        C  0.27566016  0.74995104  0.21456509    -0.20800
C810        C  0.24874989  0.74658460  0.19168849    -0.07400
C811        C  0.22351781  0.74695464  0.22084588     0.13500
C812        C  0.22599792  0.75083591  0.27153155    -0.20900
C813        C  0.25303960  0.75455233  0.29414357    -0.07400
C814        C  0.27830609  0.75427321  0.26493341     0.13500
C815        C  0.30871197  0.76007272  0.28509858    -0.24200
H816        H  0.29515000  0.74992123  0.19224565     0.14800
H817        H  0.20649931  0.75084418  0.29387883     0.14800
C818        C  0.19354689  0.74241963  0.19971492    -0.24200
H819        H  0.32646946  0.76079538  0.25565872     0.05000
H820        H  0.30501829  0.74134462  0.32284863     0.08200
H821        H  0.31834613  0.78268530  0.29236288     0.08200
H822        H  0.18363578  0.72029655  0.19076739     0.08200
H823        H  0.19801904  0.76203377  0.16276172     0.08200
H824        H  0.17569162  0.74144911  0.22930464     0.05000
C825        C  0.27049828  0.91311579  0.98112566    -0.20800
C826        C  0.25320057  0.90687484  0.03108584    -0.07400
C827        C  0.24345244  0.87726758  0.07043922     0.13500
C828        C  0.24845637  0.85427240  0.05672974    -0.20900
C829        C  0.26260078  0.85961690  0.00476039    -0.07400
C830        C  0.27523059  0.89003901  0.96736438     0.13500
C831        C  0.29372529  0.89860478  0.91280113    -0.24200
H832        H  0.27918059  0.93594168  0.95128993     0.14800
H833        H  0.23935310  0.83123894  0.08605311     0.14800
C834        C  0.22643532  0.86882780  0.12620251    -0.24200
H835        H  0.30426078  0.92396215  0.89120144     0.05000
H836        H  0.27838931  0.88704634  0.88732315     0.08200
H837        H  0.31304533  0.89177989  0.91732653     0.08200
H838        H  0.20373312  0.86984310  0.12406985     0.08200
H839        H  0.24106498  0.88493218  0.14652599     0.08200
H840        H  0.22131537  0.84494523  0.15150267     0.05000
C841        C  0.24758819  0.61551486  0.92970368    -0.20800
C842        C  0.24096655  0.58964902  0.97535746    -0.07400
C843        C  0.22742250  0.58879273  0.02502844     0.13500
C844        C  0.22530387  0.61526709  0.02884771    -0.20900
C845        C  0.23606511  0.64276559  0.98468471    -0.07400
C846        C  0.24513964  0.64191091  0.93349310     0.13500
C847        C  0.25369537  0.66893215  0.88278010    -0.24200
H848        H  0.25667452  0.61601014  0.89101040     0.14800
H849        H  0.21654963  0.61489740  0.06767726     0.14800
C850        C  0.21553928  0.56052580  0.07478837    -0.24200
H851        H  0.25965245  0.66384163  0.84662005     0.05000
H852        H  0.27437767  0.68918246  0.88518760     0.08200
H853        H  0.23372341  0.67468056  0.87708774     0.08200
H854        H  0.23533715  0.55703654  0.09067389     0.08200
H855        H  0.19942718  0.53976624  0.06541353     0.08200
H856        H  0.20241062  0.56296282  0.10745525     0.05000
C857        C  0.14777166  0.76711486  0.03121145    -0.20800
C858        C  0.15928675  0.75955962  0.99024638    -0.07400
C859        C  0.13926326  0.74822209  0.95520448     0.13500
C860        C  0.10916111  0.74660234  0.95993704    -0.20900
C861        C  0.09852143  0.75671851  0.99784160    -0.07400
C862        C  0.11786148  0.76624095  0.03509333     0.13500
C863        C  0.10817125  0.77753356  0.07666813    -0.24200
H864        H  0.16311672  0.77587119  0.05798697     0.14800
H865        H  0.09443705  0.73905148  0.93158244     0.14800
C866        C  0.14956878  0.73817736  0.91211343    -0.24200
H867        H  0.12657756  0.78510438  0.10104443     0.05000
H868        H  0.08672481  0.75855455  0.10442746     0.08200
H869        H  0.10359253  0.79759411  0.05689159     0.08200
H870        H  0.15764326  0.72042381  0.93036570     0.08200
H871        H  0.16873769  0.75829795  0.88132914     0.08200
H872        H  0.13020228  0.72790935  0.89106504     0.05000
C873        C  0.38685654  0.73532419  0.96473462    -0.20800
C874        C  0.40407548  0.74764009  0.00155852    -0.07400
C875        C  0.39246170  0.76194598  0.03030947     0.13500
C876        C  0.36253881  0.76027990  0.02609456    -0.20900
C877        C  0.34402209  0.74510499  0.99340404    -0.07400
C878        C  0.35694341  0.73355700  0.96062430     0.13500
C879        C  0.33920126  0.71703198  0.92396470    -0.24200
H880        H  0.39564228  0.72463857  0.94194096     0.14800
H881        H  0.35285959  0.76958392  0.05053749     0.14800
C882        C  0.41133891  0.77899388  0.06543929    -0.24200
H883        H  0.33669242  0.69297480  0.93656493     0.05000
H884        H  0.35229058  0.72940152  0.88209995     0.08200
H885        H  0.31555181  0.71562778  0.92412457     0.08200
H886        H  0.43463531  0.79683737  0.04181094     0.08200
H887        H  0.41424725  0.76269057  0.10071709     0.08200
H888        H  0.39974217  0.79094917  0.08095413     0.05000
O889        O  0.74198616  0.27857769  0.85615445    -0.81400
O890        O  0.73538838  0.25629422  0.10504507    -0.66100
O891        O  0.76358866  0.27879884  0.95468063    -1.12700
C892        C  0.73952063  0.17177316  0.99990740     1.05500
O893        O  0.76299512  0.23009436  0.12647176    -0.79300
O894        O  0.79471302  0.22227035  0.05049507    -0.66900
Ni895      Ni  0.74924889  0.30324103  0.90284217     1.34900
C896        C  0.80881033  0.23692813  0.00225709     0.84200
O897        O  0.75990731  0.30988909  0.02611600    -0.79800
O898        O  0.75500022  0.33146684  0.94229220    -0.90100
C899        C  0.74893309  0.24467074  0.13858755     0.83800
O900        O  0.70635848  0.28014523  0.93439990    -0.68300
O901        O  0.74231280  0.17271267  0.04743088    -0.87600
C902        C  0.69219112  0.26603920  0.98262654     0.84600
C903        C  0.75924855  0.33219185  0.98932825     1.06200
H904        H  0.71548112  0.21548266  0.03721692     0.38000
O905        O  0.73797758  0.22697487  0.03115386    -1.10300
O906        O  0.79531432  0.24413633  0.96356023    -0.66900
Ni907      Ni  0.75283296  0.23717203  0.95670826     1.26300
O908        O  0.70613464  0.26161309  0.02224892    -0.67200
O909        O  0.74170035  0.19495178  0.96116064    -0.79400
C910        C  0.75415131  0.26195308  0.84648787     0.84000
O911        O  0.76604400  0.24882382  0.88127322    -0.66600
Ni912      Ni  0.75201618  0.20281985  0.08379775     1.27400
Ni913      Ni  0.74865752  0.26826754  0.02944452     1.26100
H914        H  0.78607902  0.29035483  0.94853986     0.38500
O915        O  0.74126039  0.27479954  0.36030105    -0.81400
O916        O  0.73068372  0.25148259  0.60773869    -0.66100
O917        O  0.76232752  0.27522630  0.45900308    -1.12700
C918        C  0.73959818  0.16904502  0.50062172     1.05500
O919        O  0.75617741  0.22330738  0.63298489    -0.79300
O920        O  0.79124731  0.21863178  0.55787841    -0.66900
Ni921      Ni  0.74931837  0.30029109  0.40579829     1.34900
C922        C  0.80662299  0.23381059  0.51056518     0.84200
O923        O  0.75630347  0.30572932  0.53037992    -0.79800
O924        O  0.75629830  0.32921636  0.44440215    -0.90100
C925        C  0.74355254  0.23968612  0.64231811     0.83800
O926        O  0.70594286  0.27905565  0.43566088    -0.68300
O927        O  0.74127320  0.16876883  0.54893992    -0.87600
C928        C  0.69077082  0.26365132  0.48310376     0.84600
C929        C  0.75842311  0.32917094  0.49245329     1.06200
H930        H  0.71291931  0.21140126  0.53827136     0.38000
O931        O  0.73535492  0.22278294  0.53387732    -1.10300
O932        O  0.79400231  0.24020633  0.46996471    -0.66900
Ni933      Ni  0.75195345  0.23393339  0.45984564     1.26300
O934        O  0.70363772  0.25738433  0.52328583    -0.67200
O935        O  0.74104038  0.19222532  0.46294622    -0.79400
C936        C  0.75466345  0.25932923  0.34968716     0.84000
O937        O  0.76682798  0.24654011  0.38450962    -0.66600
Ni938      Ni  0.74801326  0.19763022  0.58759742     1.27400
Ni939      Ni  0.74566950  0.26404459  0.53300031     1.26100
H940        H  0.78477040  0.28659863  0.45452308     0.38500
O941        O  0.96763000  0.23589698  0.12808555    -0.81400
O942        O  0.98155034  0.24255312  0.88862168    -0.66100
O943        O  0.98808106  0.22598562  0.03674175    -1.12700
C944        C  0.56591190  0.33072326  0.97679966     1.05500
O945        O  0.53269198  0.26462209  0.86508229    -0.79300
O946        O  0.57130227  0.27452937  0.93524074    -0.66900
Ni947      Ni  0.95176517  0.20613248  0.09119813     1.34900
C948        C  0.57165324  0.26222558  0.98416618     0.84200
O949        O  0.95455418  0.19112166  0.97408633    -0.79800
O950        O  0.93214133  0.17408092  0.06033763    -0.90100
C951        C  0.50570805  0.25258881  0.85367627     0.83800
O952        O  0.92936394  0.22755890  0.05668846    -0.68300
O953        O  0.56787580  0.32757972  0.93065227    -0.87600
C954        C  0.92896636  0.23983119  0.00780455     0.84600
C955        C  0.93425449  0.17035565  0.01468935     1.06200
H956        H  0.50111061  0.28808062  0.94743460     0.38000
O957        O  0.51196407  0.27529369  0.95495892    -1.10300
O958        O  0.55170958  0.25803493  0.02255020    -0.66900
Ni959      Ni  0.51689084  0.26788799  0.02824756     1.26300
O960        O  0.94827032  0.24313321  0.96918630    -0.67200
O961        O  0.54569445  0.31015759  0.01769531    -0.79400
C962        C  0.99495336  0.24806004  0.13838251     0.84000
O963        O  0.51891661  0.25859099  0.10260785    -0.66600
Ni964      Ni  0.54829668  0.29513083  0.90051932     1.27400
Ni965      Ni  0.98322101  0.23340114  0.96339825     1.26100
H966        H  0.99890966  0.21317548  0.04428387     0.38500
O967        O  0.96724133  0.23875306  0.62312222    -0.81400
O968        O  0.98047276  0.24472262  0.38889127    -0.66100
O969        O  0.98919243  0.22744795  0.53577124    -1.12700
C970        C  0.56794079  0.33019524  0.48167619     1.05500
O971        O  0.53196885  0.26984089  0.35981276    -0.79300
O972        O  0.56684241  0.26860192  0.43641609    -0.66900
Ni973      Ni  0.95384468  0.20632011  0.59188710     1.34900
C974        C  0.57006474  0.26037772  0.48502369     0.84200
O975        O  0.95193887  0.19296251  0.47492197    -0.79800
O976        O  0.93761013  0.17238419  0.56488509    -0.90100
C977        C  0.50425122  0.25617148  0.35186324     0.83800
O978        O  0.92691441  0.22201745  0.55756005    -0.68300
O979        O  0.57248300  0.32488860  0.43829469    -0.87600
C980        C  0.92766902  0.23772894  0.51002200     0.84600
C981        C  0.93499404  0.17076974  0.51782479     1.06200
H982        H  0.50275217  0.29041565  0.44616229     0.38000
O983        O  0.51286028  0.27696425  0.45462941    -1.10300
O984        O  0.55305931  0.26084691  0.52285533    -0.66900
Ni985      Ni  0.51708291  0.26932199  0.52829642     1.26300
O986        O  0.94954518  0.24643301  0.47126486    -0.67200
O987        O  0.54440580  0.31161837  0.51858660    -0.79400
C988        C  0.99357921  0.24940624  0.63726992     0.84000
O989        O  0.51827755  0.25988077  0.60321909    -0.66600
Ni990      Ni  0.55000801  0.29583885  0.40250632     1.27400
Ni991      Ni  0.98300531  0.23512680  0.46325388     1.26100
H992        H  0.00071956  0.21528428  0.54157574     0.38500
O993        O  0.75928685  0.03268012  0.86463112    -0.81400
O994        O  0.75894744  0.01433505  0.11011381    -0.66100
O995        O  0.77219954  0.01259381  0.96853655    -1.12700
C996        C  0.67030307  0.43207867  0.00977108     1.05500
O997        O  0.73558504  0.46352329  0.13980228    -0.79300
O998        O  0.72788377  0.42786614  0.07678783    -0.66900
Ni999      Ni  0.78817383  0.05046541  0.90903573     1.34900
C1000       C  0.74152254  0.43055467  0.03215900     0.84200
O1001       O  0.80897127  0.04301629  0.03221257    -0.79800
O1002       O  0.82009377  0.07197133  0.94548328    -0.90100
C1003       C  0.74725481  0.49016521  0.14496677     0.83800
O1004       O  0.76170703  0.06695703  0.93033250    -0.68300
O1005       O  0.67278665  0.42926353  0.05873174    -0.87600
C1006       C  0.75303406  0.06644857  0.97693439     0.84600
C1007       C  0.82684206  0.06662557  0.99260718     1.06200
H1008       H  0.71130874  0.49653775  0.03404343     0.38000
O1009       O  0.72466933  0.48635734  0.03541415    -1.10300
O1010       O  0.74550314  0.45201921  0.98896866    -0.66900
Ni1011     Ni  0.73247799  0.48409691  0.96588340     1.26300
O1012       O  0.75507179  0.04796062  0.01924118    -0.67200
O1013       O  0.69088078  0.45344750  0.97010779    -0.79400
C1014       C  0.74836623  0.00534244  0.86179739     0.84000
O1015       O  0.74226763  0.48392465  0.89597202    -0.66600
Ni1016     Ni  0.70549531  0.44855153  0.09557573     1.27400
Ni1017     Ni  0.76648238  0.01434005  0.03893229     1.26100
H1018       H  0.78638660  0.00352261  0.96709234     0.38500
O1019       O  0.76073214  0.03228040  0.36656561    -0.81400
O1020       O  0.76050964  0.01530166  0.60817513    -0.66100
O1021       O  0.77509898  0.01205612  0.46826441    -1.12700
C1022       C  0.67380412  0.43386647  0.50857365     1.05500
O1023       O  0.73827938  0.46592996  0.64109182    -0.79300
O1024       O  0.73695948  0.43227404  0.57566905    -0.66900
Ni1025     Ni  0.79179728  0.04942861  0.40762532     1.34900
C1026       C  0.74494224  0.43133552  0.53001462     0.84200
O1027       O  0.81108744  0.04491794  0.53092790    -0.79800
O1028       O  0.82508217  0.07029055  0.44200418    -0.90100
C1029       C  0.75113463  0.49332036  0.64340096     0.83800
O1030       O  0.76786922  0.06840685  0.42790079    -0.68300
O1031       O  0.67980111  0.42838489  0.55614356    -0.87600
C1032       C  0.75654036  0.06678461  0.47360738     0.84600
C1033       C  0.83031948  0.06675847  0.48992681     1.06200
H1034       H  0.71502762  0.49723308  0.53508645     0.38000
O1035       O  0.72845729  0.48723543  0.53491736    -1.10300
O1036       O  0.74438831  0.45003524  0.48630433    -0.66900
Ni1037     Ni  0.73491329  0.48505587  0.46491190     1.26300
O1038       O  0.75627051  0.04748011  0.51689363    -0.67200
O1039       O  0.69211666  0.45764219  0.46962127    -0.79400
C1040       C  0.75144713  0.00580475  0.36117551     0.84000
O1041       O  0.74305836  0.48454885  0.39444516    -0.66600
Ni1042     Ni  0.71063978  0.44930859  0.59446241     1.27400
Ni1043     Ni  0.76876374  0.01480836  0.53778851     1.26100
H1044       H  0.78892019  0.00246016  0.46824363     0.38500
C1045       C  0.73030341  0.47377919  0.74077018    -0.20800
C1046       C  0.75257374  0.49764026  0.69685826    -0.07400
C1047       C  0.76985164  0.02407568  0.71181230     0.13500
C1048       C  0.76773987  0.02636469  0.76347176    -0.20900
C1049       C  0.74775890  0.00105347  0.80808271    -0.07400
C1050       C  0.72927445  0.47619416  0.79235618     0.13500
C1051       C  0.70433811  0.44966648  0.83705866    -0.24200
H1052       H  0.71317586  0.45306169  0.73465189     0.14800
H1053       H  0.78243274  0.04816640  0.76912413     0.14800
C1054       C  0.79310458  0.05212445  0.66695523    -0.24200
H1055       H  0.68815781  0.43124064  0.82237592     0.05000
H1056       H  0.69018842  0.45810722  0.85641218     0.08200
H1057       H  0.71549785  0.43892899  0.86695488     0.08200
H1058       H  0.78076058  0.06107624  0.63692143     0.08200
H1059       H  0.80946397  0.04588636  0.64766028     0.08200
H1060       H  0.80733658  0.07137699  0.68169671     0.05000
C1061       C  0.74105530  0.47425766  0.29661332    -0.20800
C1062       C  0.75089695  0.00260610  0.30674274    -0.07400
C1063       C  0.76571896  0.02824033  0.25869768     0.13500
C1064       C  0.76473243  0.02304828  0.20920239    -0.20900
C1065       C  0.74903330  0.49370446  0.19905128    -0.07400
C1066       C  0.73889997  0.46839462  0.24766117     0.13500
C1067       C  0.72562786  0.43507447  0.24926891    -0.24200
H1068       H  0.73383967  0.45479986  0.33336940     0.14800
H1069       H  0.77577801  0.04281528  0.17291563     0.14800
C1070       C  0.78306120  0.06124945  0.25827331    -0.24200
H1071       H  0.71919642  0.41868450  0.29099829     0.05000
H1072       H  0.74319588  0.43146026  0.22702983     0.08200
H1073       H  0.70403924  0.42903706  0.23150183     0.08200
H1074       H  0.80230006  0.06343848  0.28161123     0.08200
H1075       H  0.76671328  0.06826302  0.27542331     0.08200
H1076       H  0.79374677  0.07787563  0.21694376     0.05000
C1077       C  0.61494040  0.38104501  0.44385590    -0.20800
C1078       C  0.59214420  0.35888791  0.48891050    -0.07400
C1079       C  0.59486759  0.36375863  0.53936000     0.13500
C1080       C  0.62082190  0.38952590  0.54331828    -0.20900
C1081       C  0.64462231  0.41046751  0.49888515    -0.07400
C1082       C  0.64114059  0.40641794  0.44803334     0.13500
C1083       C  0.66551660  0.42746442  0.39818151    -0.24200
H1084       H  0.61294464  0.37796490  0.40488749     0.14800
H1085       H  0.62305237  0.39270893  0.58219733     0.14800
C1086       C  0.57150149  0.34161831  0.58993207    -0.24200
H1087       H  0.65923596  0.42004588  0.36261807     0.05000
H1088       H  0.68817136  0.42710517  0.40472204     0.08200
H1089       H  0.66805997  0.45145083  0.38833527     0.08200
H1090       H  0.57068842  0.31830277  0.59903754     0.08200
H1091       H  0.54801284  0.34021591  0.58504991     0.08200
H1092       H  0.57772342  0.34923001  0.62533151     0.05000
C1093       C  0.91323231  0.13058722  0.47260920    -0.20800
C1094       C  0.90932977  0.14219089  0.51358062    -0.07400
C1095       C  0.87970520  0.12769131  0.54778556     0.13500
C1096       C  0.85525966  0.10226994  0.54014330    -0.20900
C1097       C  0.85888904  0.09098043  0.49884134    -0.07400
C1098       C  0.88837444  0.10517980  0.46473638     0.13500
C1099       C  0.89393423  0.09346174  0.42056349    -0.24200
H1100       H  0.93571442  0.14165016  0.44630800     0.14800
H1101       H  0.83245132  0.09212056  0.56494493     0.14800
C1102       C  0.87262100  0.13986894  0.59040700    -0.24200
H1103       H  0.87949833  0.09685427  0.38967574     0.05000
H1104       H  0.91876587  0.10602135  0.40013754     0.08200
H1105       H  0.88793357  0.06845192  0.43760404     0.08200
H1106       H  0.87776471  0.16458195  0.57203040     0.08200
H1107       H  0.88658803  0.13731357  0.62250250     0.08200
H1108       H  0.84764222  0.12699288  0.61005101     0.05000
C1109       C  0.52376552  0.25319059  0.71101180    -0.20800
C1110       C  0.99563590  0.24971796  0.69319742    -0.07400
C1111       C  0.97016883  0.24519561  0.72971241     0.13500
C1112       C  0.97426342  0.24574397  0.78185816    -0.20900
C1113       C  0.50267104  0.25014194  0.79909648    -0.07400
C1114       C  0.52759559  0.25300456  0.76347640     0.13500
C1115       C  0.55812349  0.25500441  0.78007466    -0.24200
H1116       H  0.54298515  0.25563826  0.68396673     0.14800
H1117       H  0.95498908  0.24302922  0.80912075     0.14800
C1118       C  0.93862837  0.24016282  0.71464352    -0.24200
H1119       H  0.57354233  0.25448583  0.74815239     0.05000
H1120       H  0.55354056  0.23496341  0.81638871     0.08200
H1121       H  0.57120869  0.27707981  0.78809227     0.08200
H1122       H  0.92779770  0.21819779  0.70535491     0.08200
H1123       H  0.94120188  0.25996906  0.67945660     0.08200
H1124       H  0.92218338  0.23827203  0.74787361     0.02600
C1125       C  0.97401819  0.22834441  0.23563750    -0.20800
C1126       C  0.99820067  0.25053046  0.19261770    -0.07400
C1127       C  0.52408794  0.27468902  0.20212010     0.13500
C1128       C  0.52474993  0.27577118  0.25450763    -0.20900
C1129       C  0.50062390  0.25356193  0.29767095    -0.07400
C1130       C  0.97487408  0.22921017  0.28823266     0.13500
C1131       C  0.94887420  0.20375355  0.33269495    -0.24200
H1132       H  0.95438140  0.20982779  0.22818689     0.14800
H1133       H  0.54441864  0.29436401  0.26170578     0.14800
C1134       C  0.55068032  0.29960225  0.15799005    -0.24200
H1135       H  0.93177172  0.18602193  0.31773661     0.05000
H1136       H  0.93588951  0.21355455  0.35106360     0.08200
H1137       H  0.95871962  0.19185456  0.36367232     0.08200
H1138       H  0.54147030  0.31178321  0.12627363     0.08200
H1139       H  0.56338862  0.28922836  0.14056075     0.08200
H1140       H  0.56793263  0.31720200  0.17300115     0.05000
C1141       C  0.61283174  0.40326974  0.01345544    -0.20800
C1142       C  0.64336362  0.40751184  0.99861124    -0.07400
C1143       C  0.64768808  0.38636958  0.97711071     0.13500
C1144       C  0.62171802  0.36238327  0.96947643    -0.20900
C1145       C  0.59130921  0.35811511  0.98388165    -0.07400
C1146       C  0.58662101  0.37871320  0.00618491     0.13500
C1147       C  0.55430050  0.37534752  0.02072175    -0.24200
H1148       H  0.60953136  0.41914686  0.03077533     0.14800
H1149       H  0.62524186  0.34606048  0.95360951     0.14800
C1150       C  0.67899927  0.38693904  0.96444193    -0.24200
H1151       H  0.55488631  0.39386881  0.03639847     0.05000
H1152       H  0.53986131  0.35266956  0.05212811     0.08200
H1153       H  0.54308617  0.37681191  0.98456521     0.08200
H1154       H  0.67911570  0.36551630  0.99134012     0.08200
H1155       H  0.69874769  0.40696571  0.96941580     0.08200
H1156       H  0.68301787  0.38758437  0.92230782     0.05000
C1157       C  0.88090490  0.10903470  0.95700531    -0.20800
C1158       C  0.85654129  0.08976093  0.00129721    -0.07400
C1159       C  0.86018606  0.09491012  0.05127974     0.13500
C1160       C  0.88705549  0.11988885  0.05460686    -0.20900
C1161       C  0.91023743  0.14093861  0.00924890    -0.07400
C1162       C  0.90751644  0.13461526  0.95995866     0.13500
C1163       C  0.93174058  0.15483285  0.90964224    -0.24200
H1164       H  0.87856225  0.10475860  0.91897046     0.14800
H1165       H  0.88894925  0.12383760  0.09291694     0.14800
C1166       C  0.83514040  0.07575891  0.10077522    -0.24200
H1167       H  0.92619676  0.14535812  0.87602246     0.05000
H1168       H  0.95496044  0.15640843  0.91738833     0.08200
H1169       H  0.93275899  0.17830367  0.89604385     0.08200
H1170       H  0.81311301  0.07710562  0.09220161     0.08200
H1171       H  0.84148389  0.08414188  0.13538860     0.08200
H1172       H  0.83136493  0.05130159  0.11330516     0.05000
C1173       C  0.77325764  0.41172659  0.48032676    -0.20800
C1174       C  0.75336867  0.40631804  0.52663213    -0.07400
C1175       C  0.73867675  0.37595010  0.56476051     0.13500
C1176       C  0.74283735  0.35185877  0.55392995    -0.20900
C1177       C  0.76070409  0.35685675  0.50568373    -0.07400
C1178       C  0.77717979  0.38750845  0.46939576     0.13500
C1179       C  0.79911909  0.39500682  0.41929823    -0.24200
H1180       H  0.78497530  0.43493491  0.45142547     0.14800
H1181       H  0.73032015  0.32845373  0.58194848     0.14800
C1182       C  0.71682115  0.36798029  0.61533297    -0.24200
H1183       H  0.81189807  0.42039358  0.39812741     0.05000
H1184       H  0.78597471  0.38440230  0.39074912     0.08200
H1185       H  0.81669279  0.38626541  0.43007713     0.08200
H1186       H  0.69709419  0.37348080  0.60496325     0.08200
H1187       H  0.72968579  0.38119033  0.64120740     0.08200
H1188       H  0.70671059  0.34295118  0.63924120     0.05000
C1189       C  0.72239926  0.11213947  0.52724074    -0.20800
C1190       C  0.73797375  0.14151045  0.48774492    -0.07400
C1191       C  0.75545885  0.14455482  0.44009831     0.13500
C1192       C  0.75888285  0.11893368  0.43524511    -0.20900
C1193       C  0.74576511  0.09026633  0.47685921    -0.07400
C1194       C  0.72584957  0.08643035  0.52242001     0.13500
C1195       C  0.70818208  0.05558647  0.56633349    -0.24200
H1196       H  0.70844434  0.10958559  0.56324233     0.14800
H1197       H  0.77375372  0.12203643  0.39990140     0.14800
C1198       C  0.77260575  0.17518036  0.39563897    -0.24200
H1199       H  0.69143179  0.05640900  0.59550113     0.05000
H1200       H  0.72451877  0.04889651  0.58934166     0.08200
H1201       H  0.69459122  0.03756392  0.54859609     0.08200
H1202       H  0.78940048  0.19253469  0.41161063     0.08200
H1203       H  0.75564394  0.18330455  0.37819264     0.08200
H1204       H  0.78608918  0.17346508  0.36248954     0.05000
C1205       C  0.64413172  0.26064263  0.53367964    -0.20800
C1206       C  0.65677516  0.25455572  0.49184705    -0.07400
C1207       C  0.63769425  0.24372313  0.45540487     0.13500
C1208       C  0.60783193  0.24259697  0.45817481    -0.20900
C1209       C  0.59657798  0.25248172  0.49580732    -0.07400
C1210       C  0.61438159  0.26002328  0.53599265     0.13500
C1211       C  0.60346160  0.26961436  0.57913966    -0.24200
H1212       H  0.65860251  0.26835473  0.56222570     0.14800
H1213       H  0.59395783  0.23579839  0.42839046     0.14800
C1214       C  0.64872644  0.23361169  0.41311386    -0.24200
H1215       H  0.62045460  0.27471435  0.60679880     0.05000
H1216       H  0.58091387  0.25060050  0.60359065     0.08200
H1217       H  0.60059811  0.29092133  0.56066679     0.08200
H1218       H  0.65624987  0.21556781  0.43239999     0.08200
H1219       H  0.66844242  0.25358382  0.38311374     0.08200
H1220       H  0.62988190  0.22363114  0.39093911     0.05000
C1221       C  0.88861322  0.25292739  0.53961595    -0.20800
C1222       C  0.90071913  0.24470697  0.50048153    -0.07400
C1223       C  0.88371708  0.23802443  0.45917121     0.13500
C1224       C  0.85396051  0.23739746  0.46065462    -0.20900
C1225       C  0.84059410  0.24258419  0.50303291    -0.07400
C1226       C  0.85883433  0.25192365  0.54158561     0.13500
C1227       C  0.84701890  0.26046929  0.58551793    -0.24200
H1228       H  0.90188108  0.25848901  0.57076909     0.14800
H1229       H  0.84014965  0.23052003  0.43086390     0.14800
C1230       C  0.89566425  0.22919647  0.41593633    -0.24200
H1231       H  0.86556211  0.27004837  0.60848994     0.05000
H1232       H  0.82749565  0.23978778  0.61467246     0.08200
H1233       H  0.83906987  0.27838637  0.56773036     0.08200
H1234       H  0.89931015  0.20834368  0.43439979     0.08200
H1235       H  0.91807961  0.24870409  0.39202735     0.08200
H1236       H  0.87895639  0.22377195  0.38793455     0.05000
C1237       C  0.77246719  0.24821140  0.71689064    -0.20800
C1238       C  0.74592941  0.24636373  0.69378129    -0.07400
C1239       C  0.72266302  0.25059704  0.72052110     0.13500
C1240       C  0.72618259  0.25555847  0.77017546    -0.20900
C1241       C  0.75240553  0.25671852  0.79382488    -0.07400
C1242       C  0.77617103  0.25359860  0.76618169     0.13500
C1243       C  0.80604651  0.25717833  0.78702038    -0.24200
H1244       H  0.79072594  0.24578372  0.69584095     0.14800
H1245       H  0.70802417  0.25818700  0.79108088     0.14800
C1246       C  0.69364646  0.24903954  0.69809684    -0.24200
H1247       H  0.82283241  0.25606732  0.75836471     0.05000
H1248       H  0.80109792  0.23835339  0.82533627     0.08200
H1249       H  0.81751640  0.27996906  0.79341621     0.08200
H1250       H  0.68108073  0.22647700  0.69131900     0.08200
H1251       H  0.70002549  0.26832165  0.65970823     0.08200
H1252       H  0.67728966  0.25119385  0.72592413     0.05000
C1253       C  0.77610790  0.25018089  0.21650271    -0.20800
C1254       C  0.75007995  0.24910699  0.19216380    -0.07400
C1255       C  0.72570991  0.25124648  0.22028535     0.13500
C1256       C  0.72792551  0.25403403  0.27168293    -0.20900
C1257       C  0.75389750  0.25506046  0.29604826    -0.07400
C1258       C  0.77849947  0.25340603  0.26767275     0.13500
C1259       C  0.80793004  0.25642242  0.28971017    -0.24200
H1260       H  0.79504385  0.24894867  0.19492746     0.14800
H1261       H  0.70899422  0.25529326  0.29323416     0.14800
C1262       C  0.69685317  0.24976707  0.19738188    -0.24200
H1263       H  0.82531428  0.25620499  0.26087926     0.05000
H1264       H  0.80253391  0.23687282  0.32706662     0.08200
H1265       H  0.81887869  0.27861383  0.29826989     0.08200
H1266       H  0.68535893  0.22802539  0.18754851     0.08200
H1267       H  0.70321063  0.27009678  0.16068546     0.08200
H1268       H  0.67955653  0.25009451  0.22622878     0.05000
C1269       C  0.77090000  0.41307910  0.98035339    -0.20800
C1270       C  0.75133829  0.40656929  0.02802130    -0.07400
C1271       C  0.73807531  0.37605614  0.06569856     0.13500
C1272       C  0.74342042  0.35303711  0.05316132    -0.20900
C1273       C  0.76051222  0.35908991  0.00344116    -0.07400
C1274       C  0.77514721  0.38971753  0.96706643     0.13500
C1275       C  0.79502878  0.39801792  0.91401413    -0.24200
H1276       H  0.78162009  0.43635707  0.95161681     0.14800
H1277       H  0.73219483  0.32948083  0.08095294     0.14800
C1278       C  0.71664917  0.36661740  0.11769306    -0.24200
H1279       H  0.80641699  0.42341716  0.89258421     0.05000
H1280       H  0.78046038  0.38686157  0.88731484     0.08200
H1281       H  0.81370315  0.39039860  0.92080315     0.08200
H1282       H  0.69550990  0.36990767  0.10921749     0.08200
H1283       H  0.72914991  0.38053957  0.14289015     0.08200
H1284       H  0.70856690  0.34180815  0.14151547     0.05000
C1285       C  0.74619285  0.11448048  0.93602137    -0.20800
C1286       C  0.74228553  0.08987214  0.98230258    -0.07400
C1287       C  0.73106046  0.09012417  0.03282289     0.13500
C1288       C  0.72762397  0.11608570  0.03583258    -0.20900
C1289       C  0.73538342  0.14236931  0.99044352    -0.07400
C1290       C  0.74278025  0.14056747  0.93925532     0.13500
C1291       C  0.74821250  0.16619772  0.88780469    -0.24200
H1292       H  0.75361072  0.11418983  0.89693912     0.14800
H1293       H  0.72039806  0.11645396  0.07497616     0.14800
C1294       C  0.72348166  0.06389998  0.08464856    -0.24200
H1295       H  0.75295292  0.16038343  0.85180516     0.05000
H1296       H  0.76870755  0.18770039  0.88655407     0.08200
H1297       H  0.72715170  0.17033133  0.88492475     0.08200
H1298       H  0.74522152  0.06277246  0.09567989     0.08200
H1299       H  0.70685810  0.04162600  0.08041288     0.08200
H1300       H  0.71238346  0.06712460  0.11873801     0.05000
C1301       C  0.64567329  0.26336392  0.03316941    -0.20800
C1302       C  0.65810160  0.25643317  0.99229405    -0.07400
C1303       C  0.63885398  0.24504672  0.95631800     0.13500
C1304       C  0.60900236  0.24388463  0.95884711    -0.20900
C1305       C  0.59799641  0.25437557  0.99551249    -0.07400
C1306       C  0.61598755  0.26289729  0.03484512     0.13500
C1307       C  0.60532939  0.27400714  0.07576620    -0.24200
H1308       H  0.66030860  0.27180825  0.06101036     0.14800
H1309       H  0.59499662  0.23679584  0.92936998     0.14800
C1310       C  0.64982185  0.23484195  0.91409059    -0.24200
H1311       H  0.62268295  0.28051133  0.10235802     0.05000
H1312       H  0.58302969  0.25529653  0.10152902     0.08200
H1313       H  0.60195100  0.29475727  0.05516180     0.08200
H1314       H  0.65833141  0.21756153  0.93311810     0.08200
H1315       H  0.66875574  0.25496329  0.88293298     0.08200
H1316       H  0.63065710  0.22390552  0.89321087     0.05000
C1317       C  0.88506439  0.23612318  0.95889694    -0.20800
C1318       C  0.90264364  0.24757934  0.99598813    -0.07400
C1319       C  0.89125515  0.26066964  0.02770883     0.13500
C1320       C  0.86144037  0.25936351  0.02494807    -0.20900
C1321       C  0.84248190  0.24496264  0.99191740    -0.07400
C1322       C  0.85484776  0.23393640  0.95723825     0.13500
C1323       C  0.83618261  0.21713356  0.92161239    -0.24200
H1324       H  0.89366165  0.22597658  0.93463206     0.14800
H1325       H  0.85207455  0.26802342  0.05115653     0.14800
C1326       C  0.91016620  0.27563121  0.06512184    -0.24200
H1327       H  0.83466813  0.19345888  0.93289945     0.05000
H1328       H  0.84802681  0.22990484  0.87909136     0.08200
H1329       H  0.81204590  0.21452321  0.92452993     0.08200
H1330       H  0.93348954  0.29394726  0.04241395     0.08200
H1331       H  0.91307530  0.25817278  0.09826412     0.08200
H1332       H  0.89860773  0.28659244  0.08370920     0.05000
O1333       O  0.74277925  0.77837487  0.85626858    -0.81400
O1334       O  0.73417625  0.75367700  0.10497235    -0.66100
O1335       O  0.76449810  0.77867843  0.95485645    -1.12700
C1336       C  0.74099481  0.67178101  0.99597024     1.05500
O1337       O  0.76250461  0.72809975  0.12565157    -0.79300
O1338       O  0.79527356  0.72083089  0.04987175    -0.66900
Ni1339     Ni  0.75099616  0.80368045  0.90261979     1.34900
C1340       C  0.81020157  0.73674248  0.00236074     0.84200
O1341       O  0.75870517  0.80847083  0.02775073    -0.79800
O1342       O  0.75808956  0.83226499  0.94226905    -0.90100
C1343       C  0.74780493  0.74203746  0.13835588     0.83800
O1344       O  0.70772237  0.78249806  0.93347100    -0.68300
O1345       O  0.74277693  0.67174071  0.04423161    -0.87600
C1346       C  0.69288864  0.76727702  0.98121612     0.84600
C1347       C  0.76033382  0.83195302  0.99049843     1.06200
H1348       H  0.71631324  0.71454928  0.03408382     0.38000
O1349       O  0.73874918  0.72616380  0.02919002    -1.10300
O1350       O  0.79732792  0.74488299  0.96325919    -0.66900
Ni1351     Ni  0.75479496  0.73756695  0.95491649     1.26300
O1352       O  0.70602846  0.76037666  0.02081864    -0.67200
O1353       O  0.74443048  0.69570913  0.95759554    -0.79400
C1354       C  0.75583398  0.76261707  0.84534876     0.84000
O1355       O  0.76885725  0.75048417  0.87934552    -0.66600
Ni1356     Ni  0.75221159  0.70138397  0.08182312     1.27400
Ni1357     Ni  0.74842299  0.76704629  0.02938366     1.26100
H1358       H  0.78692543  0.79034409  0.94995951     0.38500
O1359       O  0.74029459  0.77461190  0.35824989    -0.81400
O1360       O  0.73122068  0.75087932  0.60685312    -0.66100
O1361       O  0.76184387  0.77529685  0.45715537    -1.12700
C1362       C  0.74206119  0.67036438  0.49455900     1.05500
O1363       O  0.75518052  0.72119618  0.63259248    -0.79300
O1364       O  0.79240024  0.72077556  0.55481133    -0.66900
Ni1365     Ni  0.74761161  0.79960851  0.40492137     1.34900
C1366       C  0.80747443  0.73592670  0.50727332     0.84200
O1367       O  0.75605478  0.80511811  0.52963010    -0.79800
O1368       O  0.75346792  0.82782125  0.44476326    -0.90100
C1369       C  0.74334353  0.73822894  0.64178594     0.83800
O1370       O  0.70449826  0.77714959  0.43579459    -0.68300
O1371       O  0.74449023  0.67010558  0.54271261    -0.87600
C1372       C  0.68996979  0.76247291  0.48374418     0.84600
C1373       C  0.75645417  0.82801275  0.49253917     1.06200
H1374       H  0.71322630  0.71094392  0.53608009     0.38000
O1375       O  0.73564991  0.72251350  0.53148662    -1.10300
O1376       O  0.79449742  0.74132223  0.46670638    -0.66900
Ni1377     Ni  0.75227142  0.73443119  0.45690712     1.26300
O1378       O  0.70345694  0.75682592  0.52335149    -0.67200
O1379       O  0.74213799  0.69319540  0.45801689    -0.79400
C1380       C  0.75420041  0.75958939  0.34734518     0.84000
O1381       O  0.76726912  0.74777228  0.38161439    -0.66600
Ni1382     Ni  0.74912873  0.69745499  0.58397225     1.27400
Ni1383     Ni  0.74569918  0.76363182  0.53163584     1.26100
H1384       H  0.78426166  0.78713867  0.45201743     0.38500
O1385       O  0.96711999  0.72770519  0.14420420    -0.81400
O1386       O  0.98242336  0.74028878  0.89801964    -0.66100
O1387       O  0.98835115  0.72430078  0.04594604    -1.12700
C1388       C  0.56326604  0.82909427  0.99338201     1.05500
O1389       O  0.53254596  0.77231617  0.86628635    -0.79300
O1390       O  0.56816601  0.77363503  0.94171648    -0.66900
Ni1391     Ni  0.94997831  0.70466607  0.09654243     1.34900
C1392       C  0.57080946  0.76312735  0.99009143     0.84200
O1393       O  0.95893460  0.68903583  0.98188582    -0.79800
O1394       O  0.92767038  0.67741318  0.05762127    -0.90100
C1395       C  0.50599677  0.75403247  0.86072589     0.83800
O1396       O  0.93507608  0.73395089  0.06265587    -0.68300
O1397       O  0.56702698  0.82609725  0.94778738    -0.87600
C1398       C  0.93105473  0.74070748  0.01427099     0.84600
C1399       C  0.93396579  0.67125892  0.01619792     1.06200
H1400       H  0.49778363  0.78589469  0.95880507     0.38000
O1401       O  0.51007707  0.77450568  0.96531181    -1.10300
O1402       O  0.55219330  0.75984685  0.02997696    -0.66900
Ni1403     Ni  0.51503525  0.76639137  0.03908633     1.26300
O1404       O  0.94708814  0.73833526  0.97751766    -0.67200
O1405       O  0.54112703  0.80892926  0.03159325    -0.79400
C1406       C  0.99468956  0.74323911  0.15088155     0.84000
O1407       O  0.51765827  0.75644004  0.11318092    -0.66600
Ni1408     Ni  0.54709953  0.79736332  0.91119204     1.27400
Ni1409     Ni  0.98439284  0.73191233  0.97217739     1.26100
H1410       H  0.99951769  0.71186907  0.05493601     0.38500
O1411       O  0.96647476  0.73670261  0.63364319    -0.81400
O1412       O  0.98102622  0.74273811  0.39840327    -0.66100
O1413       O  0.98593978  0.72414556  0.54646128    -1.12700
C1414       C  0.56377908  0.82882487  0.49278648     1.05500
O1415       O  0.53217314  0.76680595  0.37385910    -0.79300
O1416       O  0.57088583  0.77653011  0.44482955    -0.66900
Ni1417     Ni  0.94949704  0.70591517  0.59957110     1.34900
C1418       C  0.57026926  0.76101610  0.49244390     0.84200
O1419       O  0.95227548  0.69073688  0.48272697    -0.79800
O1420       O  0.92958905  0.67378723  0.56938203    -0.90100
C1421       C  0.50498134  0.75299626  0.36395225     0.83800
O1422       O  0.92747897  0.72756422  0.56388672    -0.68300
O1423       O  0.56446280  0.82771787  0.44497768    -0.87600
C1424       C  0.92750034  0.73948996  0.51462675     0.84600
C1425       C  0.93136229  0.67054119  0.52333988     1.06200
H1426       H  0.49943167  0.78651176  0.46226716     0.38000
O1427       O  0.51052559  0.77393905  0.46753751    -1.10300
O1428       O  0.54942102  0.75383653  0.53201746    -0.66900
Ni1429     Ni  0.51557388  0.76468585  0.54084119     1.26300
O1430       O  0.94760099  0.74315953  0.47719160    -0.67200
O1431       O  0.54533020  0.80605573  0.53314016    -0.79400
C1432       C  0.99264006  0.74453722  0.64883226     0.84000
O1433       O  0.51702811  0.75329052  0.61566174    -0.66600
Ni1434     Ni  0.54649636  0.79606597  0.41235579     1.27400
Ni1435     Ni  0.98192457  0.73270881  0.47306614     1.26100
H1436       H  0.99581403  0.71047028  0.55433385     0.38500
O1437       O  0.76331731  0.53483206  0.85702280    -0.81400
O1438       O  0.75822092  0.51434390  0.10411817    -0.66100
O1439       O  0.77390229  0.51416606  0.96256849    -1.12700
C1440       C  0.66898127  0.93040097  0.02270505     1.05500
O1441       O  0.73939288  0.96379397  0.14490046    -0.79300
O1442       O  0.73005228  0.92735989  0.08307836    -0.66900
Ni1443     Ni  0.78981084  0.55248328  0.90425613     1.34900
C1444       C  0.74212514  0.92981587  0.03730977     0.84200
O1445       O  0.80941674  0.54368942  0.02848852    -0.79800
O1446       O  0.81974041  0.57428379  0.94319432    -0.90100
C1447       C  0.74897663  0.99014394  0.15087324     0.83800
O1448       O  0.76072317  0.56631894  0.92483539    -0.68300
O1449       O  0.67350966  0.92730439  0.07090073    -0.87600
C1450       C  0.75242224  0.56634489  0.97117346     0.84600
C1451       C  0.82689306  0.56823813  0.98990898     1.06200
H1452       H  0.71065025  0.99474556  0.04436645     0.38000
O1453       O  0.72432245  0.98501849  0.04397572    -1.10300
O1454       O  0.74380980  0.95049901  0.99464533    -0.66900
Ni1455     Ni  0.73035696  0.98249316  0.97418899     1.26300
O1456       O  0.75569992  0.54899682  0.01365331    -0.67200
O1457       O  0.68827994  0.95193177  0.98162682    -0.79400
C1458       C  0.75226729  0.50751063  0.85423037     0.84000
O1459       O  0.73824119  0.98190383  0.90379368    -0.66600
Ni1460     Ni  0.70753594  0.94742386  0.10452235     1.27400
Ni1461     Ni  0.76683960  0.51515047  0.03306873     1.26100
H1462       H  0.78836969  0.50538340  0.96134828     0.38500
O1463       O  0.76644954  0.53528400  0.35703908    -0.81400
O1464       O  0.76238979  0.51669786  0.60133516    -0.66100
O1465       O  0.77736226  0.51310422  0.46171092    -1.12700
C1466       C  0.67067870  0.93178738  0.51928451     1.05500
O1467       O  0.73946425  0.96453137  0.64609160    -0.79300
O1468       O  0.73127504  0.92717400  0.58370036    -0.66900
Ni1469     Ni  0.79569985  0.55111028  0.40169040     1.34900
C1470       C  0.74217226  0.92837218  0.53795216     0.84200
O1471       O  0.81301082  0.54419318  0.52657714    -0.79800
O1472       O  0.82780617  0.57133473  0.43848767    -0.90100
C1473       C  0.75033211  0.99165462  0.64983606     0.83800
O1474       O  0.77130616  0.57017741  0.42035604    -0.68300
O1475       O  0.67568364  0.92824118  0.56746249    -0.87600
C1476       C  0.76004043  0.56874922  0.46599316     0.84600
C1477       C  0.83225873  0.56675762  0.48684104     1.06200
H1478       H  0.71303715  0.99496248  0.54177240     0.38000
O1479       O  0.72674767  0.98520920  0.54227492    -1.10300
O1480       O  0.74448105  0.94909814  0.49478541    -0.66900
Ni1481     Ni  0.73307913  0.98247132  0.47275601     1.26300
O1482       O  0.75973341  0.54943273  0.50935712    -0.67200
O1483       O  0.69066554  0.95314824  0.47890087    -0.79400
C1484       C  0.75432484  0.50839790  0.35297782     0.84000
O1485       O  0.74149430  0.98176777  0.40227284    -0.66600
Ni1486     Ni  0.70889310  0.94798376  0.60311274     1.27400
Ni1487     Ni  0.77068509  0.51568337  0.53140902     1.26100
H1488       H  0.79045590  0.50271010  0.46208358     0.38500
C1489       C  0.73099636  0.97022566  0.74840948    -0.20800
C1490       C  0.75094863  0.99559065  0.70380218    -0.07400
C1491       C  0.77458090  0.52486124  0.70517387     0.13500
C1492       C  0.77351756  0.52727927  0.75684098    -0.20900
C1493       C  0.75120941  0.50339111  0.80067551    -0.07400
C1494       C  0.72925731  0.97238306  0.80028087     0.13500
C1495       C  0.70742043  0.94381061  0.84579003    -0.24200
H1496       H  0.71636790  0.94842645  0.74268604     0.14800
H1497       H  0.79058644  0.54796774  0.76314039     0.14800
C1498       C  0.79960503  0.55137490  0.66052381    -0.24200
H1499       H  0.69379047  0.92416655  0.83149021     0.05000
H1500       H  0.69046913  0.94877252  0.86663312     0.08200
H1501       H  0.72110346  0.93607787  0.87443980     0.08200
H1502       H  0.78865186  0.56235826  0.63046721     0.08200
H1503       H  0.81369388  0.54284404  0.64125274     0.08200
H1504       H  0.81586099  0.56968952  0.67535473     0.05000
C1505       C  0.73580911  0.97266145  0.30305639    -0.20800
C1506       C  0.75243765  0.50450035  0.29914966    -0.07400
C1507       C  0.76233309  0.52977019  0.25050363     0.13500
C1508       C  0.76047976  0.52391695  0.20165261    -0.20900
C1509       C  0.74966132  0.99313789  0.20545655    -0.07400
C1510       C  0.73465089  0.96751726  0.25344880     0.13500
C1511       C  0.71665860  0.93466103  0.25355858    -0.24200
H1512       H  0.72463252  0.95289465  0.33940927     0.14800
H1513       H  0.76785951  0.54343739  0.16495049     0.14800
C1514       C  0.77480852  0.56311159  0.24861056    -0.24200
H1515       H  0.70574402  0.91802355  0.29481156     0.05000
H1516       H  0.73258270  0.92724737  0.23626699     0.08200
H1517       H  0.69753063  0.93304269  0.23012553     0.08200
H1518       H  0.79659240  0.56986389  0.26576946     0.08200
H1519       H  0.75693387  0.56621420  0.27114085     0.08200
H1520       H  0.78069165  0.57937199  0.20687175     0.05000
C1521       C  0.60713775  0.88230476  0.45545001    -0.20800
C1522       C  0.58718151  0.85761970  0.50112720    -0.07400
C1523       C  0.59250559  0.86014291  0.55259811     0.13500
C1524       C  0.61883655  0.88562447  0.55642691    -0.20900
C1525       C  0.64053608  0.90874703  0.51078455    -0.07400
C1526       C  0.63368863  0.90753106  0.45928687     0.13500
C1527       C  0.65444706  0.93180153  0.40765913    -0.24200
H1528       H  0.60286905  0.88127940  0.41582600     0.14800
H1529       H  0.62309912  0.88667034  0.59604143     0.14800
C1530       C  0.57143056  0.83602824  0.60419154    -0.24200
H1531       H  0.64479643  0.92725830  0.37165090     0.05000
H1532       H  0.67767706  0.93188516  0.40448915     0.08200
H1533       H  0.65689933  0.95496664  0.40639448     0.08200
H1534       H  0.57216469  0.81361391  0.60958345     0.08200
H1535       H  0.54711351  0.83308563  0.60360633     0.08200
H1536       H  0.57872037  0.84274874  0.64000023     0.05000
C1537       C  0.91362978  0.62885316  0.48132539    -0.20800
C1538       C  0.90658389  0.64238814  0.51680079    -0.07400
C1539       C  0.87521134  0.62993796  0.54319913     0.13500
C1540       C  0.85218277  0.60437681  0.53378547    -0.20900
C1541       C  0.85912115  0.59101908  0.49835783    -0.07400
C1542       C  0.89015617  0.60328816  0.47162990     0.13500
C1543       C  0.89857137  0.58925585  0.43367130    -0.24200
H1544       H  0.93750472  0.63840009  0.46095267     0.14800
H1545       H  0.82808431  0.59559502  0.55229071     0.14800
C1546       C  0.86504025  0.64426663  0.57899492    -0.24200
H1547       H  0.88624570  0.59135966  0.39901544     0.05000
H1548       H  0.92407576  0.60105298  0.41771884     0.08200
H1549       H  0.89179106  0.56439311  0.45502730     0.08200
H1550       H  0.87213966  0.66912751  0.55697037     0.08200
H1551       H  0.87544318  0.64181479  0.61593627     0.08200
H1552       H  0.83926557  0.63278079  0.59215390     0.05000
C1553       C  0.52348220  0.75018791  0.72198900    -0.20800
C1554       C  0.99466864  0.74464028  0.70477346    -0.07400
C1555       C  0.96883962  0.73939092  0.74150337     0.13500
C1556       C  0.97328748  0.74189243  0.79237152    -0.20900
C1557       C  0.50254499  0.74905995  0.80835078    -0.07400
C1558       C  0.52769244  0.75202483  0.77333005     0.13500
C1559       C  0.55879051  0.75623139  0.78980458    -0.24200
H1560       H  0.54296358  0.75308326  0.69497310     0.14800
H1561       H  0.95396236  0.73917492  0.81953885     0.14800
C1562       C  0.93644851  0.73139972  0.72831246    -0.24200
H1563       H  0.57431350  0.75491655  0.75915796     0.05000
H1564       H  0.55510611  0.73767053  0.82801312     0.08200
H1565       H  0.57127580  0.77930934  0.79465846     0.08200
H1566       H  0.92736961  0.70934508  0.71914696     0.08200
H1567       H  0.93696333  0.75043823  0.69371320     0.08200
H1568       H  0.91958847  0.72803654  0.76243761     0.02600
C1569       C  0.97574885  0.72304424  0.24919318    -0.20800
C1570       C  0.99902684  0.74568015  0.20516009    -0.07400
C1571       C  0.52453627  0.76996105  0.21457589     0.13500
C1572       C  0.52576270  0.77129830  0.26685121    -0.20900
C1573       C  0.50206208  0.74915779  0.31046768    -0.07400
C1574       C  0.97698344  0.72443688  0.30142128     0.13500
C1575       C  0.95156428  0.69879192  0.34667521    -0.24200
H1576       H  0.95625877  0.70396832  0.24279431     0.14800
H1577       H  0.54524008  0.79028530  0.27351105     0.14800
C1578       C  0.55045872  0.79527127  0.16981768    -0.24200
H1579       H  0.93489848  0.68031720  0.33263429     0.05000
H1580       H  0.93784995  0.70809716  0.36463272     0.08200
H1581       H  0.96210789  0.68789902  0.37776685     0.08200
H1582       H  0.54058504  0.80726119  0.13913369     0.08200
H1583       H  0.56320237  0.78531544  0.15127472     0.08200
H1584       H  0.56783159  0.81299148  0.18445152     0.05000
C1585       C  0.61112355  0.90135632  0.03038531    -0.20800
C1586       C  0.64145808  0.90556776  0.01386407    -0.07400
C1587       C  0.64527193  0.88414632  0.99271454     0.13500
C1588       C  0.61899780  0.85982645  0.98706532    -0.20900
C1589       C  0.58872937  0.85562487  0.00260119    -0.07400
C1590       C  0.58451927  0.87652777  0.02467506     0.13500
C1591       C  0.55238744  0.87335155  0.04017397    -0.24200
H1592       H  0.60830508  0.91755124  0.04741509     0.14800
H1593       H  0.62225827  0.84350242  0.97084204     0.14800
C1594       C  0.67649104  0.88512093  0.97742461    -0.24200
H1595       H  0.55339851  0.89220079  0.05527576     0.05000
H1596       H  0.53822911  0.85090271  0.07232387     0.08200
H1597       H  0.54062402  0.87439594  0.00463713     0.08200
H1598       H  0.67737535  0.86396434  0.00371961     0.08200
H1599       H  0.69649246  0.90542238  0.98094104     0.08200
H1600       H  0.67944932  0.88565505  0.93516290     0.05000
C1601       C  0.87883724  0.61438079  0.95310439    -0.20800
C1602       C  0.85665223  0.59168231  0.99864111    -0.07400
C1603       C  0.86268989  0.59355340  0.05013202     0.13500
C1604       C  0.88925091  0.61880278  0.05403490    -0.20900
C1605       C  0.91008556  0.64266679  0.00832062    -0.07400
C1606       C  0.90524273  0.63981200  0.95707093     0.13500
C1607       C  0.92664870  0.66408362  0.90602995    -0.24200
H1608       H  0.87499482  0.61286351  0.91356669     0.14800
H1609       H  0.89316342  0.62047354  0.09348494     0.14800
C1610       C  0.84082582  0.57009920  0.10138160    -0.24200
H1611       H  0.91881825  0.65831865  0.86972149     0.05000
H1612       H  0.95061601  0.66594645  0.90603813     0.08200
H1613       H  0.92708203  0.68680350  0.90259222     0.08200
H1614       H  0.81742252  0.56962213  0.10105054     0.08200
H1615       H  0.84911073  0.57576405  0.13752810     0.08200
H1616       H  0.83903241  0.54679461  0.10555550     0.05000
C1617       C  0.76831030  0.90947278  0.48292750    -0.20800
C1618       C  0.75098042  0.90380559  0.53246611    -0.07400
C1619       C  0.73893231  0.87364176  0.57108235     0.13500
C1620       C  0.74320125  0.85014038  0.55785305    -0.20900
C1621       C  0.75812181  0.85533310  0.50658209    -0.07400
C1622       C  0.77150635  0.88573777  0.46904910     0.13500
C1623       C  0.78893877  0.89356777  0.41390756    -0.24200
H1624       H  0.77814289  0.93246313  0.45331196     0.14800
H1625       H  0.73294669  0.82691695  0.58678117     0.14800
C1626       C  0.72001646  0.86518710  0.62517929    -0.24200
H1627       H  0.79995915  0.91888910  0.39185021     0.05000
H1628       H  0.77266864  0.88215567  0.38933322     0.08200
H1629       H  0.80775988  0.88600856  0.41744472     0.08200
H1630       H  0.69859872  0.86847351  0.61989621     0.08200
H1631       H  0.73428355  0.87977743  0.64808276     0.08200
H1632       H  0.71244566  0.84057225  0.64967018     0.05000
C1633       C  0.72614805  0.61385948  0.52102336    -0.20800
C1634       C  0.74059901  0.64302720  0.48093997    -0.07400
C1635       C  0.75683105  0.64591985  0.43205457     0.13500
C1636       C  0.76066540  0.62044691  0.42694199    -0.20900
C1637       C  0.74899489  0.59211795  0.46940788    -0.07400
C1638       C  0.72991328  0.58837902  0.51601759     0.13500
C1639       C  0.71356604  0.55792489  0.56127162    -0.24200
H1640       H  0.71289722  0.61133372  0.55780024     0.14800
H1641       H  0.77466151  0.62343076  0.39063477     0.14800
C1642       C  0.77210620  0.67623336  0.38642771    -0.24200
H1643       H  0.69710291  0.55867981  0.59107545     0.05000
H1644       H  0.73078792  0.55234706  0.58328483     0.08200
H1645       H  0.69980976  0.53919980  0.54508689     0.08200
H1646       H  0.78948663  0.69425700  0.40042778     0.08200
H1647       H  0.75412545  0.68349204  0.37141838     0.08200
H1648       H  0.78455199  0.67445568  0.35204108     0.05000
C1649       C  0.64407490  0.75920734  0.53718075    -0.20800
C1650       C  0.65608735  0.75376497  0.49371021    -0.07400
C1651       C  0.63664592  0.74444612  0.45660590     0.13500
C1652       C  0.60702887  0.74377326  0.46099422    -0.20900
C1653       C  0.59641052  0.75260605  0.50084318    -0.07400
C1654       C  0.61459870  0.75915987  0.54085772     0.13500
C1655       C  0.60435195  0.76868265  0.58473337    -0.24200
H1656       H  0.65885382  0.76609893  0.56587359     0.14800
H1657       H  0.59285276  0.73830659  0.43083108     0.14800
C1658       C  0.64707910  0.73578800  0.41153050    -0.24200
H1659       H  0.62181824  0.77378843  0.61161517     0.05000
H1660       H  0.58195286  0.74969130  0.60971223     0.08200
H1661       H  0.60126569  0.78991388  0.56679741     0.08200
H1662       H  0.65509795  0.71776791  0.42798072     0.08200
H1663       H  0.66623280  0.75640111  0.38155221     0.08200
H1664       H  0.62776016  0.72630896  0.38984621     0.05000
C1665       C  0.88977817  0.75854009  0.53564520    -0.20800
C1666       C  0.90129283  0.74717492  0.50122603    -0.07400
C1667       C  0.88399522  0.73786829  0.46160599     0.13500
C1668       C  0.85445119  0.73755216  0.46086935    -0.20900
C1669       C  0.84153570  0.74556107  0.49942276    -0.07400
C1670       C  0.86009317  0.75774477  0.53544510     0.13500
C1671       C  0.84850806  0.76935771  0.57456054    -0.24200
H1672       H  0.90326403  0.76623624  0.56525984     0.14800
H1673       H  0.84027009  0.72844537  0.43305418     0.14800
C1674       C  0.89516296  0.72573156  0.42300115    -0.24200
H1675       H  0.86701562  0.78030174  0.59652543     0.05000
H1676       H  0.82857941  0.74998159  0.60501829     0.08200
H1677       H  0.84109747  0.78700028  0.55254011     0.08200
H1678       H  0.89828022  0.70513229  0.44559020     0.08200
H1679       H  0.91766681  0.74407824  0.39735004     0.08200
H1680       H  0.87822674  0.71862786  0.39604676     0.05000
C1681       C  0.77212674  0.74595513  0.71714223    -0.20800
C1682       C  0.74582246  0.74472430  0.69371086    -0.07400
C1683       C  0.72332182  0.75018082  0.71991548     0.13500
C1684       C  0.72738148  0.75582529  0.76910541    -0.20900
C1685       C  0.75357510  0.75679528  0.79279010    -0.07400
C1686       C  0.77661238  0.75243658  0.76555857     0.13500
C1687       C  0.80679839  0.75622526  0.78536261    -0.24200
H1688       H  0.78984501  0.74259717  0.69660963     0.14800
H1689       H  0.70970641  0.75930210  0.78948369     0.14800
C1690       C  0.69457593  0.74938466  0.69726712    -0.24200
H1691       H  0.82289633  0.75403354  0.75709515     0.05000
H1692       H  0.80224231  0.73822895  0.82454291     0.08200
H1693       H  0.81892091  0.77953067  0.78960547     0.08200
H1694       H  0.68127723  0.72673190  0.69119593     0.08200
H1695       H  0.70136447  0.76846007  0.65847273     0.08200
H1696       H  0.67875851  0.75245016  0.72460314     0.05000
C1697       C  0.77561497  0.74970845  0.21486245    -0.20800
C1698       C  0.74867059  0.74628566  0.19206295    -0.07400
C1699       C  0.72345263  0.74666524  0.22125046     0.13500
C1700       C  0.72600096  0.75065416  0.27184936    -0.20900
C1701       C  0.75309443  0.75447209  0.29433883    -0.07400
C1702       C  0.77832629  0.75413760  0.26514072     0.13500
C1703       C  0.80876730  0.76000392  0.28520519    -0.24200
H1704       H  0.79509001  0.74965946  0.19253616     0.14800
H1705       H  0.70652236  0.75068370  0.29421673     0.14800
C1706       C  0.69343442  0.74204863  0.20024211    -0.24200
H1707       H  0.82648721  0.76065756  0.25578655     0.05000
H1708       H  0.80511291  0.74134710  0.32303870     0.08200
H1709       H  0.81842602  0.78266675  0.29228824     0.08200
H1710       H  0.68352315  0.71989403  0.19139879     0.08200
H1711       H  0.69784253  0.76161902  0.16325370     0.08200
H1712       H  0.67560373  0.74109078  0.22986385     0.05000
C1713       C  0.77017467  0.91277471  0.98142677    -0.20800
C1714       C  0.75284848  0.90654522  0.03134998    -0.07400
C1715       C  0.74298552  0.87690110  0.07065817     0.13500
C1716       C  0.74800304  0.85390169  0.05699320    -0.20900
C1717       C  0.76223435  0.85925307  0.00508555    -0.07400
C1718       C  0.77489183  0.88968182  0.96768604     0.13500
C1719       C  0.79338774  0.89824048  0.91312604    -0.24200
H1720       H  0.77889914  0.93561019  0.95160623     0.14800
H1721       H  0.73884104  0.83085771  0.08629902     0.14800
C1722       C  0.72580657  0.86841720  0.12631295    -0.24200
H1723       H  0.80394415  0.92359938  0.89153177     0.05000
H1724       H  0.77804238  0.88669963  0.88763886     0.08200
H1725       H  0.81269190  0.89139236  0.91765131     0.08200
H1726       H  0.70316598  0.86954567  0.12394517     0.08200
H1727       H  0.74038375  0.88442330  0.14683890     0.08200
H1728       H  0.72054575  0.84448425  0.15156061     0.05000
C1729       C  0.74792789  0.61540771  0.93011848    -0.20800
C1730       C  0.74128656  0.58953216  0.97575145    -0.07400
C1731       C  0.72760838  0.58858768  0.02538499     0.13500
C1732       C  0.72541358  0.61502208  0.02922917    -0.20900
C1733       C  0.73621138  0.64254301  0.98510677    -0.07400
C1734       C  0.74539393  0.64175425  0.93392294     0.13500
C1735       C  0.75401260  0.66881090  0.88324915    -0.24200
H1736       H  0.75710439  0.61595627  0.89144323     0.14800
H1737       H  0.71657227  0.61460704  0.06803871     0.14800
C1738       C  0.71564659  0.56026393  0.07505632    -0.24200
H1739       H  0.76007360  0.66377712  0.84708710     0.05000
H1740       H  0.77464952  0.68904481  0.88582145     0.08200
H1741       H  0.73403808  0.67454518  0.87743922     0.08200
H1742       H  0.73540686  0.55675643  0.09107229     0.08200
H1743       H  0.69960127  0.53953889  0.06551817     0.08200
H1744       H  0.70242331  0.56263841  0.10768101     0.05000
C1745       C  0.64753912  0.76673009  0.03188752    -0.20800
C1746       C  0.65901313  0.75917458  0.99087733    -0.07400
C1747       C  0.63900318  0.74797464  0.95572073     0.13500
C1748       C  0.60895446  0.74647629  0.96040547    -0.20900
C1749       C  0.59837999  0.75661591  0.99833338    -0.07400
C1750       C  0.61769716  0.76601392  0.03567731     0.13500
C1751       C  0.60807333  0.77738330  0.07719023    -0.24200
H1752       H  0.66288408  0.77540098  0.05872635     0.14800
H1753       H  0.59423857  0.73903429  0.93197082     0.14800
C1754       C  0.64928315  0.73798559  0.91251938    -0.24200
H1755       H  0.62645975  0.78485532  0.10164760     0.05000
H1756       H  0.58655731  0.75848139  0.10487968     0.08200
H1757       H  0.60363537  0.79752891  0.05733622     0.08200
H1758       H  0.65727155  0.72015170  0.93068781     0.08200
H1759       H  0.66850812  0.75811112  0.88183993     0.08200
H1760       H  0.62992798  0.72783915  0.89136064     0.05000
C1761       C  0.88722298  0.73597024  0.96404604    -0.20800
C1762       C  0.90421837  0.74777375  0.00153296    -0.07400
C1763       C  0.89240718  0.76169184  0.03089590     0.13500
C1764       C  0.86246611  0.75998465  0.02673989    -0.20900
C1765       C  0.84412449  0.74520960  0.99344795    -0.07400
C1766       C  0.85731356  0.73423342  0.95989098     0.13500
C1767       C  0.83989857  0.71837101  0.92222610    -0.24200
H1768       H  0.89618390  0.72566530  0.94066555     0.14800
H1769       H  0.85262917  0.76893190  0.05169137     0.14800
C1770       C  0.91107730  0.77837336  0.06663791    -0.24200
H1771       H  0.83742522  0.69433904  0.93388908     0.05000
H1772       H  0.85321357  0.73124177  0.88057211     0.08200
H1773       H  0.81626394  0.71698062  0.92227088     0.08200
H1774       H  0.93442599  0.79632307  0.04338355     0.08200
H1775       H  0.91385831  0.76186266  0.10173431     0.08200
H1776       H  0.89938276  0.79015739  0.08245339     0.05000
loop_ 
_geom_bond_atom_site_label_1 
_geom_bond_atom_site_label_2 
_geom_bond_distance 
_geom_bond_site_symmetry_2 
_ccdc_geom_bond_type 
O1           Ni7   1.925       .  S
O1           C22   1.270       .  A
O2          Ni25   1.910       .  S
O2           C11   1.268       .  A
O3           Ni7   1.915       .  S
O3          Ni25   1.915   1_556  S
O3          Ni19   1.918       .  S
O3           H26   0.966       .  S
C4           O21   1.276       .  A
C4           O13   1.277   1_556  A
C4          C401   1.500       .  S
O5          Ni24   1.933       .  S
O5           C11   1.271       .  A
O6          Ni24   1.901       .  S
O6            C8   1.268       .  A
Ni7          O10   1.923       .  S
Ni7          O12   1.894       .  S
C8           O18   1.274   1_554  A
C8          C433   1.481   1_554  S
O9          Ni25   1.903       .  S
O9           C15   1.270   1_554  A
O10          C15   1.272       .  A
C11         C366   1.491       .  S
O12          C14   1.267       .  A
O13         Ni24   1.921       .  S
C14          O20   1.277   1_556  A
C14         C414   1.483       .  S
C15         C385   1.478   1_556  S
H16          O17   0.966       .  S
O17         Ni25   1.904       .  S
O17         Ni19   1.909   1_554  S
O17         Ni24   1.909       .  S
O18         Ni19   1.937       .  S
Ni19         O23   1.907       .  S
Ni19         O21   1.925       .  S
O20         Ni25   1.945       .  S
C22          O23   1.268       .  A
C22         C353   1.484       .  S
O27         Ni33   1.929       .  S
O27          C48   1.271       .  A
O28         Ni51   1.900       .  S
O28          C37   1.265       .  A
O29         Ni33   1.912       .  S
O29         Ni51   1.910       .  S
O29         Ni45   1.914       .  S
O29          H52   0.966       .  S
C30          O47   1.273       .  A
C30          O39   1.276       .  A
C30         C302   1.487       .  S
O31         Ni50   1.933       .  S
O31          C37   1.272       .  A
O32         Ni50   1.896       .  S
O32          C34   1.267       .  A
Ni33         O36   1.928       .  S
Ni33         O38   1.903       .  S
C34          O44   1.276       .  A
C34         C337   1.484       .  S
O35         Ni51   1.916       .  S
O35          C41   1.274       .  A
O36          C41   1.274       .  A
C37         C350   1.485       .  S
O38          C40   1.268       .  A
O39         Ni50   1.928       .  S
C40          O46   1.273       .  A
C40         C318   1.483       .  S
C41         C289   1.489       .  S
H42          O43   0.966       .  S
O43         Ni51   1.913       .  S
O43         Ni45   1.910       .  S
O43         Ni50   1.912       .  S
O44         Ni45   1.942       .  S
Ni45         O49   1.913       .  S
Ni45         O47   1.912       .  S
O46         Ni51   1.934       .  S
C48          O49   1.269       .  A
C48         C369   1.489       .  S
O53         Ni59   1.921       .  S
O53          C74   1.269       .  A
O54         Ni77   1.907       .  S
O54         C951   1.268       .  A
O55         Ni59   1.906       .  S
O55         Ni77   1.905   1_554  S
O55        Ni959   1.910       .  S
O55          H78   0.966       .  S
C56          O73   1.275   1_556  A
C56          O65   1.276       .  A
C56         C257   1.474       .  S
O57         Ni76   1.921       .  S
O57          C63   1.266       .  A
O58         Ni76   1.899       .  S
O58          C60   1.267       .  A
Ni59         O62   1.917       .  S
Ni59         O64   1.900       .  S
C60          O70   1.272   1_556  A
C60         C417   1.485       .  S
O61         Ni77   1.917       .  S
O61          C67   1.274   1_556  A
O62          C67   1.276       .  A
C63         O942   1.268   1_455  A
C63         C225   1.486       .  S
O64          C66   1.267       .  A
O65         Ni76   1.918       .  S
C66          O72   1.274   1_554  A
C66         C430   1.483   1_554  S
C67         C273   1.497       .  S
H68          O69   0.966       .  S
O69         Ni71   1.905   1_556  S
O69         Ni76   1.906       .  S
O69        Ni965   1.913   1_455  S
O70         Ni71   1.935       .  S
Ni71         O75   1.899       .  S
Ni71         O73   1.919       .  S
Ni71        O943   1.910   1_455  S
O72         Ni77   1.938       .  S
C74         O963   1.264       .  A
C74         C238   1.478       .  S
O75         C962   1.265   1_455  A
Ni77        O957   1.913       .  S
O79         Ni85   1.916       .  S
O79         C100   1.264       .  A
O80        Ni103   1.904       .  S
O80         C977   1.269       .  A
O81         Ni85   1.898       .  S
O81        Ni103   1.901       .  S
O81        Ni985   1.907       .  S
O81         H104   0.966       .  S
C82          O99   1.271       .  A
C82          O91   1.276       .  A
C82         C190   1.495       .  S
O83        Ni102   1.919       .  S
O83          C89   1.271       .  A
O84        Ni102   1.896       .  S
O84          C86   1.267       .  A
Ni85         O88   1.908       .  S
Ni85         O90   1.904       .  S
C86          O96   1.275       .  A
C86         C321   1.492       .  S
O87        Ni103   1.940       .  S
O87          C93   1.283       .  A
O88          C93   1.274       .  A
C89         O968   1.269   1_455  A
C89         C241   1.481       .  S
O90          C92   1.268       .  A
O91        Ni102   1.930       .  S
C92          O98   1.271       .  A
C92         C334   1.482       .  S
C93         C206   1.487       .  S
H94          O95   0.966       .  S
O95         Ni97   1.906       .  S
O95        Ni102   1.903       .  S
O95        Ni991   1.921   1_455  S
O96         Ni97   1.945       .  S
Ni97        O101   1.906       .  S
Ni97         O99   1.908       .  S
Ni97        O969   1.907   1_455  S
O98        Ni103   1.930       .  S
C100        O989   1.267       .  A
C100        C222   1.485       .  S
O101        C988   1.267   1_455  A
Ni103       O983   1.922       .  S
O105       Ni111   1.939       .  S
O105        C126   1.276       .  A
O106       Ni129   1.898       .  S
O106        C559   1.265   1_545  A
O107       Ni111   1.917       .  S
O107       Ni129   1.898   1_556  S
O107       Ni567   1.909   1_545  S
O107        H130   0.966       .  S
C108        O125   1.274   1_554  A
C108        O117   1.274       .  A
C108        C254   1.476   1_554  S
O109       Ni128   1.927       .  S
O109        C115   1.268       .  A
O110       Ni128   1.910       .  S
O110        C112   1.268       .  A
Ni111       O114   1.935       .  S
Ni111       O116   1.919       .  S
C112        O122   1.270   1_554  A
C112        C382   1.492       .  S
O113       Ni129   1.903       .  S
O113        C119   1.271   1_554  A
O114        C119   1.278       .  A
C115        O550   1.264       .  A
C115        C177   1.488       .  S
O116        C118   1.272       .  A
O117       Ni128   1.926       .  S
C118        O124   1.270   1_556  A
C118        C398   1.503       .  S
C119        C270   1.489   1_556  S
H120        O121   0.966       .  S
O121       Ni123   1.901   1_554  S
O121       Ni128   1.923       .  S
O121       Ni573   1.916       .  S
O122       Ni123   1.914       .  S
Ni123       O127   1.889       .  S
Ni123       O125   1.917       .  S
Ni123       O551   1.906       .  S
O124       Ni129   1.925       .  S
C126        O571   1.263   1_545  A
C126        C161   1.491       .  S
O127        C570   1.263       .  A
Ni129       O565   1.910   1_545  S
O131       Ni137   1.924       .  S
O131        C152   1.267       .  A
O132       Ni155   1.892       .  S
O132        C585   1.263   1_545  A
O133       Ni137   1.917       .  S
O133       Ni155   1.899       .  S
O133       Ni593   1.912   1_545  S
O133        H156   0.966       .  S
C134        O151   1.271       .  A
C134        O143   1.276       .  A
C134        C193   1.492       .  S
O135       Ni154   1.933       .  S
O135        C141   1.273       .  A
O136       Ni154   1.910       .  S
O136        C138   1.269       .  A
Ni137       O140   1.926       .  S
Ni137       O142   1.912       .  S
C138        O148   1.273       .  A
C138        C286   1.493       .  S
O139       Ni155   1.919       .  S
O139        C145   1.278       .  A
O140        C145   1.275       .  A
C141        O576   1.262       .  A
C141        C158   1.486       .  S
O142        C144   1.270       .  A
O143       Ni154   1.929       .  S
C144        O150   1.267       .  A
C144        C305   1.491       .  S
C145        C209   1.484       .  S
H146        O147   0.966       .  S
O147       Ni149   1.902       .  S
O147       Ni154   1.917       .  S
O147       Ni599   1.906       .  S
O148       Ni149   1.933       .  S
Ni149       O153   1.894       .  S
Ni149       O151   1.907       .  S
Ni149       O577   1.911       .  S
O150       Ni155   1.918       .  S
C152        O597   1.266   1_545  A
C152        C174   1.489       .  S
O153        C596   1.264       .  A
Ni155       O591   1.912   1_545  S
C157        C158   1.404       .  A
C157        C162   1.401       .  A
C157        H164   1.084       .  S
C158        C603   1.419       .  A
C159        C160   1.402       .  A
C159        C602   1.420   1_545  A
C159        C166   1.509       .  S
C160        C161   1.404       .  A
C160        H165   1.084       .  S
C161        C606   1.421   1_545  A
C162        C605   1.417       .  A
C162        C163   1.507       .  S
C163        H167   1.111       .  S
C163        H168   1.110       .  S
C163        H169   1.107       .  S
C166        H170   1.110       .  S
C166        H171   1.110       .  S
C166        H172   1.111       .  S
C173        C178   1.401       .  A
C173        C618   1.407       .  A
C173        H180   1.082       .  S
C174        C175   1.420       .  A
C174        C617   1.406   1_545  A
C175        C176   1.401       .  A
C175        C182   1.510       .  S
C176        C621   1.405   1_545  A
C176        H181   1.081       .  S
C177        C178   1.419       .  A
C177        C620   1.406       .  A
C178        C179   1.510       .  S
C179        H183   1.111       .  S
C179        H184   1.110       .  S
C179        H185   1.110       .  S
C182        H186   1.110       .  S
C182        H187   1.110       .  S
C182        H188   1.111       .  S
C189        C190   1.408       .  A
C189        C194   1.402       .  A
C189        H196   1.083       .  S
C190        C191   1.420       .  A
C191        C192   1.405       .  A
C191        C198   1.510       .  S
C192        C193   1.407       .  A
C192        H197   1.084       .  S
C193        C194   1.418       .  A
C194        C195   1.509       .  S
C195        H199   1.111       .  S
C195        H200   1.109       .  S
C195        H201   1.110       .  S
C198        H202   1.110       .  S
C198        H203   1.110       .  S
C198        H204   1.111       .  S
C205        C206   1.405       .  A
C205        C210   1.411       .  A
C205        H212   1.084       .  S
C206        C207   1.423       .  A
C207        C208   1.399       .  A
C207        C214   1.511       .  S
C208        C209   1.398       .  A
C208        H213   1.083       .  S
C209        C210   1.418       .  A
C210        C211   1.506       .  S
C211        H215   1.109       .  S
C211        H216   1.111       .  S
C211        H217   1.110       .  S
C214        H218   1.110       .  S
C214        H219   1.109       .  S
C214        H220   1.111       .  S
C221        C226   1.400       .  A
C221       C1110   1.403   1_455  A
C221        H228   1.084       .  S
C222        C223   1.421       .  A
C222       C1109   1.403       .  A
C223        C224   1.403       .  A
C223        C230   1.510       .  S
C224       C1113   1.403       .  A
C224        H229   1.084       .  S
C225        C226   1.421       .  A
C225       C1112   1.403   1_455  A
C226        C227   1.510       .  S
C227        H231   1.111       .  S
C227        H232   1.111       .  S
C227        H233   1.109       .  S
C230        H234   1.110       .  S
C230        H235   1.110       .  S
C230        H236   1.111       .  S
C237        C238   1.407       .  A
C237        C242   1.401       .  A
C237        H244   1.084       .  S
C238       C1127   1.413       .  A
C239        C240   1.399       .  A
C239       C1126   1.413   1_455  A
C239        C246   1.509       .  S
C240        C241   1.408       .  A
C240        H245   1.084       .  S
C241       C1130   1.414   1_455  A
C242       C1129   1.414       .  A
C242        C243   1.508       .  S
C243        H247   1.111       .  S
C243        H248   1.109       .  S
C243        H249   1.110       .  S
C246        H250   1.108       .  S
C246        H251   1.109       .  S
C246        H252   1.111       .  S
C253        C254   1.407   1_554  A
C253        C258   1.412       .  A
C253        H260   1.084       .  S
C254        C255   1.416       .  A
C255        C256   1.394       .  A
C255        C262   1.508       .  S
C256        C257   1.399       .  A
C256        H261   1.086       .  S
C257        C258   1.412   1_556  A
C258        C259   1.505       .  S
C259        H263   1.111       .  S
C259        H264   1.108       .  S
C259        H265   1.110   1_554  S
C262        H266   1.111       .  S
C262        H267   1.102       .  S
C262        H268   1.109       .  S
C269        C270   1.406   1_556  A
C269        C274   1.406       .  A
C269        H276   1.084       .  S
C270        C271   1.417       .  A
C271        C272   1.400       .  A
C271        C278   1.509       .  S
C272        C273   1.410       .  A
C272        H277   1.083       .  S
C273        C274   1.421   1_554  A
C274        C275   1.509       .  S
C275        H279   1.111       .  S
C275        H280   1.110       .  S
C275        H281   1.110       .  S
C278        H282   1.110       .  S
C278        H283   1.111       .  S
C278        H284   1.110       .  S
C285        C286   1.407       .  A
C285        C290   1.408       .  A
C285        H292   1.084       .  S
C286        C287   1.420       .  A
C287        C288   1.405       .  A
C287        C294   1.509       .  S
C288        C289   1.404       .  A
C288        H293   1.084       .  S
C289        C290   1.416       .  A
C290        C291   1.508       .  S
C291        H295   1.111       .  S
C291        H296   1.109       .  S
C291        H297   1.110       .  S
C294        H298   1.111       .  S
C294        H299   1.110       .  S
C294        H300   1.111       .  S
C301        C302   1.405       .  A
C301        C306   1.407       .  A
C301        H308   1.084       .  S
C302        C303   1.417       .  A
C303        C304   1.402       .  A
C303        C310   1.507       .  S
C304        C305   1.405       .  A
C304        H309   1.084       .  S
C305        C306   1.421       .  A
C306        C307   1.509       .  S
C307        H311   1.111       .  S
C307        H312   1.109       .  S
C307        H313   1.110       .  S
C310        H314   1.110       .  S
C310        H315   1.110       .  S
C310        H316   1.111       .  S
C317        C318   1.404       .  A
C317        C322   1.408       .  A
C317        H324   1.084       .  S
C318        C319   1.414       .  A
C319        C320   1.403       .  A
C319        C326   1.510       .  S
C320        C321   1.408       .  A
C320        H325   1.084       .  S
C321        C322   1.420       .  A
C322        C323   1.508       .  S
C323        H327   1.111       .  S
C323        H328   1.110       .  S
C323        H329   1.110       .  S
C326        H330   1.110       .  S
C326        H331   1.109       .  S
C326        H332   1.111       .  S
C333        C334   1.402       .  A
C333        C338   1.402       .  A
C333        H340   1.085       .  S
C334        C335   1.416       .  A
C335        C336   1.408       .  A
C335        C342   1.507       .  S
C336        C337   1.405       .  A
C336        H341   1.084       .  S
C337        C338   1.417       .  A
C338        C339   1.510       .  S
C339        H343   1.111       .  S
C339        H344   1.109       .  S
C339        H345   1.110       .  S
C342        H346   1.111       .  S
C342        H347   1.110       .  S
C342        H348   1.111       .  S
C349        C350   1.407       .  A
C349        C354   1.404       .  A
C349        H356   1.084       .  S
C350        C351   1.415       .  A
C351        C352   1.404       .  A
C351        C358   1.509       .  S
C352        C353   1.408       .  A
C352        H357   1.084       .  S
C353        C354   1.413       .  A
C354        C355   1.508       .  S
C355        H359   1.111       .  S
C355        H360   1.107       .  S
C355        H361   1.110       .  S
C358        H362   1.110       .  S
C358        H363   1.110       .  S
C358        H364   1.111       .  S
C365        C366   1.409       .  A
C365        C370   1.407       .  A
C365        H372   1.084       .  S
C366        C367   1.415       .  A
C367        C368   1.405       .  A
C367        C374   1.508       .  S
C368        C369   1.408       .  A
C368        H373   1.084       .  S
C369        C370   1.415       .  A
C370        C371   1.508       .  S
C371        H375   1.111       .  S
C371        H376   1.106       .  S
C371        H377   1.110       .  S
C374        H378   1.110       .  S
C374        H379   1.110       .  S
C374        H380   1.111       .  S
C381        C382   1.410   1_556  A
C381        C386   1.402       .  A
C381        H388   1.084       .  S
C382        C383   1.422       .  A
C383        C384   1.403       .  A
C383        C390   1.509       .  S
C384        C385   1.402       .  A
C384        H389   1.085       .  S
C385        C386   1.412   1_554  A
C386        C387   1.508       .  S
C387        H391   1.111       .  S
C387        H392   1.109       .  S
C387        H393   1.110       .  S
C390        H394   1.110       .  S
C390        H395   1.110       .  S
C390        H396   1.111       .  S
C397        C398   1.410       .  A
C397        C402   1.411       .  A
C397        H404   1.083       .  S
C398        C399   1.423   1_556  A
C399        C400   1.403       .  A
C399        C406   1.510       .  S
C400        C401   1.406   1_554  A
C400        H405   1.084       .  S
C401        C402   1.420       .  A
C402        C403   1.507       .  S
C403        H407   1.111       .  S
C403        H408   1.106       .  S
C403        H409   1.110       .  S
C406        H410   1.109       .  S
C406        H411   1.110       .  S
C406        H412   1.111       .  S
C413        C414   1.404   1_554  A
C413        C418   1.408       .  A
C413        H420   1.084       .  S
C414        C415   1.417       .  A
C415        C416   1.402       .  A
C415        C422   1.510       .  S
C416        C417   1.403       .  A
C416        H421   1.084       .  S
C417        C418   1.418   1_556  A
C418        C419   1.507       .  S
C419        H423   1.111       .  S
C419        H424   1.110       .  S
C419        H425   1.110       .  S
C422        H426   1.110       .  S
C422        H427   1.109       .  S
C422        H428   1.111       .  S
C429        C430   1.404       .  A
C429        C434   1.406       .  A
C429        H436   1.085       .  S
C430        C431   1.415   1_556  A
C431        C432   1.405       .  A
C431        C438   1.509       .  S
C432        C433   1.405   1_554  A
C432        H437   1.085       .  S
C433        C434   1.418       .  A
C434        C435   1.508       .  S
C435        H439   1.111       .  S
C435        H440   1.110       .  S
C435        H441   1.103       .  S
C438        H442   1.110       .  S
C438        H443   1.108       .  S
C438        H444   1.111       .  S
O445       Ni451   1.940       .  S
O445        C466   1.275       .  A
O446       Ni469   1.910       .  S
O446        C455   1.268       .  A
O447       Ni451   1.912       .  S
O447       Ni469   1.913   1_556  S
O447       Ni463   1.918       .  S
O447        H470   0.966       .  S
C448        O465   1.277       .  A
C448        O457   1.278   1_556  A
C448        C845   1.502       .  S
O449       Ni468   1.936       .  S
O449        C455   1.273       .  A
O450       Ni468   1.906       .  S
O450        C452   1.269       .  A
Ni451       O454   1.934       .  S
Ni451       O456   1.904       .  S
C452        O462   1.275   1_554  A
C452        C877   1.484   1_554  S
O453       Ni469   1.915       .  S
O453        C459   1.274   1_554  A
O454        C459   1.276       .  A
C455        C810   1.490       .  S
O456        C458   1.269       .  A
O457       Ni468   1.927       .  S
C458        O464   1.277   1_556  A
C458        C858   1.489       .  S
C459        C829   1.494   1_556  S
H460        O461   0.966       .  S
O461       Ni469   1.909       .  S
O461       Ni463   1.908   1_554  S
O461       Ni468   1.909       .  S
O462       Ni463   1.942       .  S
Ni463       O467   1.910       .  S
Ni463       O465   1.928       .  S
O464       Ni469   1.945       .  S
C466        O467   1.269       .  A
C466        C797   1.494       .  S
O471       Ni477   1.937       .  S
O471        C492   1.273       .  A
O472       Ni495   1.906       .  S
O472        C481   1.266       .  A
O473       Ni477   1.913       .  S
O473       Ni495   1.912       .  S
O473       Ni489   1.909       .  S
O473        H496   0.966       .  S
C474        O491   1.270       .  A
C474        O483   1.276       .  A
C474        C746   1.490       .  S
O475       Ni494   1.938       .  S
O475        C481   1.273       .  A
O476       Ni494   1.896       .  S
O476        C478   1.267       .  A
Ni477       O480   1.929       .  S
Ni477       O482   1.899       .  S
C478        O488   1.276       .  A
C478        C781   1.480       .  S
O479       Ni495   1.915       .  S
O479        C485   1.274       .  A
O480        C485   1.275       .  A
C481        C794   1.492       .  S
O482        C484   1.267       .  A
O483       Ni494   1.931       .  S
C484        O490   1.273       .  A
C484        C762   1.482       .  S
C485        C733   1.492       .  S
H486        O487   0.966       .  S
O487       Ni495   1.917       .  S
O487       Ni489   1.919       .  S
O487       Ni494   1.916       .  S
O488       Ni489   1.941       .  S
Ni489       O493   1.910       .  S
Ni489       O491   1.911       .  S
O490       Ni495   1.934       .  S
C492        O493   1.267       .  A
C492        C813   1.490       .  S
O497       Ni503   1.924       .  S
O497        C518   1.271       .  A
O498       Ni521   1.895       .  S
O498       C1395   1.264       .  A
O499       Ni503   1.920       .  S
O499       Ni521   1.906   1_554  S
O499      Ni1403   1.914       .  S
O499        H522   0.966       .  S
C500        O517   1.270   1_556  A
C500        O509   1.269       .  A
C500        C701   1.475   1_556  S
O501       Ni520   1.909       .  S
O501        C507   1.263       .  A
O502       Ni520   1.897       .  S
O502        C504   1.268       .  A
Ni503       O506   1.931       .  S
Ni503       O508   1.909       .  S
C504        O514   1.279   1_556  A
C504        C861   1.494       .  S
O505       Ni521   1.915       .  S
O505        C511   1.271   1_556  A
O506        C511   1.274       .  A
C507       O1386   1.264   1_455  A
C507        C669   1.474       .  S
O508        C510   1.268       .  A
O509       Ni520   1.907       .  S
C510        O516   1.275   1_554  A
C510        C874   1.491       .  S
C511        C717   1.493       .  S
H512        O513   0.966   1_655  S
O513      Ni1409   1.920   1_455  S
O513       Ni515   1.917   1_556  S
O513       Ni520   1.919       .  S
O514       Ni515   1.955       .  S
Ni515       O519   1.897       .  S
Ni515       O517   1.919       .  S
Ni515      O1387   1.913   1_455  S
O516       Ni521   1.945       .  S
C518       O1407   1.265       .  A
C518        C682   1.486       .  S
O519       C1406   1.265   1_455  A
Ni521      O1401   1.919       .  S
O523       Ni529   1.912       .  S
O523        C544   1.264       .  A
O524       Ni547   1.896       .  S
O524       C1421   1.264       .  A
O525       Ni529   1.897       .  S
O525       Ni547   1.895       .  S
O525      Ni1429   1.903       .  S
O525        H548   0.966       .  S
C526        O543   1.273       .  A
C526        O535   1.277       .  A
C526        C634   1.497       .  S
O527       Ni546   1.928       .  S
O527        C533   1.271       .  A
O528       Ni546   1.898       .  S
O528        C530   1.268       .  A
Ni529       O532   1.911       .  S
Ni529       O534   1.904       .  S
C530        O540   1.274       .  A
C530        C765   1.482       .  S
O531       Ni547   1.923       .  S
O531        C537   1.279       .  A
O532        C537   1.274       .  A
C533       O1412   1.264   1_455  A
C533        C685   1.480       .  S
O534        C536   1.267       .  A
O535       Ni546   1.923       .  S
C536        O542   1.269       .  A
C536        C778   1.483       .  S
C537        C650   1.480       .  S
H538        O539   0.966   1_655  S
O539      Ni1435   1.916   1_455  S
O539       Ni541   1.906       .  S
O539       Ni546   1.902       .  S
O540       Ni541   1.935       .  S
Ni541       O545   1.906       .  S
Ni541       O543   1.913       .  S
Ni541      O1413   1.903   1_455  S
O542       Ni547   1.927       .  S
C544       O1433   1.268       .  A
C544        C666   1.483       .  S
O545       C1432   1.268   1_455  A
Ni547      O1427   1.916       .  S
O549       Ni555   1.937       .  S
O549        C570   1.275       .  A
O550       Ni573   1.889       .  S
O551       Ni555   1.914       .  S
O551       Ni573   1.894   1_556  S
O551        H574   0.966       .  S
C552        O569   1.275   1_554  A
C552        O561   1.274       .  A
C552        C698   1.471       .  S
O553       Ni572   1.924       .  S
O553        C559   1.267       .  A
O554       Ni572   1.917       .  S
O554        C556   1.269       .  A
Ni555       O558   1.935       .  S
Ni555       O560   1.917       .  S
C556        O566   1.270   1_554  A
C556        C826   1.500       .  S
O557       Ni573   1.915       .  S
O557        C563   1.274   1_554  A
O558        C563   1.278       .  A
C559        C621   1.489       .  S
O560        C562   1.271       .  A
O561       Ni572   1.923       .  S
C562        O568   1.270   1_556  A
C562        C842   1.499       .  S
C563        C714   1.500       .  S
H564        O565   0.966       .  S
O565       Ni567   1.900   1_554  S
O565       Ni572   1.922       .  S
O566       Ni567   1.918       .  S
Ni567       O571   1.891       .  S
Ni567       O569   1.917       .  S
O568       Ni573   1.928       .  S
C570        C605   1.484       .  S
O575       Ni581   1.924       .  S
O575        C596   1.267       .  A
O576       Ni599   1.892       .  S
O577       Ni581   1.926       .  S
O577       Ni599   1.904       .  S
O577        H600   0.966       .  S
C578        O595   1.274       .  A
C578        O587   1.278       .  A
C578        C637   1.499       .  S
O579       Ni598   1.938       .  S
O579        C585   1.275       .  A
O580       Ni598   1.921       .  S
O580        C582   1.271       .  A
Ni581       O584   1.924       .  S
Ni581       O586   1.916       .  S
C582        O592   1.271       .  A
C582        C730   1.500       .  S
O583       Ni599   1.904       .  S
O583        C589   1.272       .  A
O584        C589   1.272       .  A
C585        C602   1.490       .  S
O586        C588   1.270       .  A
O587       Ni598   1.928       .  S
C588        O594   1.268       .  A
C588        C749   1.495       .  S
C589        C653   1.470       .  S
H590        O591   0.966       .  S
O591       Ni593   1.899       .  S
O591       Ni598   1.915       .  S
O592       Ni593   1.918       .  S
Ni593       O597   1.900       .  S
Ni593       O595   1.913       .  S
O594       Ni599   1.921       .  S
C596        C618   1.488       .  S
C601        C602   1.405       .  A
C601        C606   1.404       .  A
C601        H608   1.084       .  S
C603        C604   1.403       .  A
C603        C610   1.507       .  S
C604        C605   1.404       .  A
C604        H609   1.084       .  S
C606        C607   1.508       .  S
C607        H611   1.111       .  S
C607        H612   1.110       .  S
C607        H613   1.110       .  S
C610        H614   1.109       .  S
C610        H615   1.110       .  S
C610        H616   1.111       .  S
C617        C622   1.402       .  A
C617        H624   1.083       .  S
C618        C619   1.419       .  A
C619        C620   1.398       .  A
C619        C626   1.510       .  S
C620        H625   1.083       .  S
C621        C622   1.419       .  A
C622        C623   1.510       .  S
C623        H627   1.111       .  S
C623        H628   1.110       .  S
C623        H629   1.110       .  S
C626        H630   1.110       .  S
C626        H631   1.110       .  S
C626        H632   1.111       .  S
C633        C634   1.408       .  A
C633        C638   1.403       .  A
C633        H640   1.083       .  S
C634        C635   1.421       .  A
C635        C636   1.405       .  A
C635        C642   1.511       .  S
C636        C637   1.409       .  A
C636        H641   1.083       .  S
C637        C638   1.421       .  A
C638        C639   1.509       .  S
C639        H643   1.111       .  S
C639        H644   1.109       .  S
C639        H645   1.110       .  S
C642        H646   1.110       .  S
C642        H647   1.110       .  S
C642        H648   1.111       .  S
C649        C650   1.406       .  A
C649        C654   1.407       .  A
C649        H656   1.084       .  S
C650        C651   1.421       .  A
C651        C652   1.395       .  A
C651        C658   1.512       .  S
C652        C653   1.396       .  A
C652        H657   1.083       .  S
C653        C654   1.412       .  A
C654        C655   1.505       .  S
C655        H659   1.109       .  S
C655        H660   1.111       .  S
C655        H661   1.110       .  S
C658        H662   1.111       .  S
C658        H663   1.109       .  S
C658        H664   1.111       .  S
C665       C1554   1.404   1_455  A
C665        C670   1.399       .  A
C665        H672   1.084       .  S
C666       C1553   1.404       .  A
C666        C667   1.424       .  A
C667        C668   1.398       .  A
C667        C674   1.510       .  S
C668       C1557   1.399       .  A
C668        H673   1.084       .  S
C669       C1556   1.399   1_455  A
C669        C670   1.418       .  A
C670        C671   1.510       .  S
C671        H675   1.111       .  S
C671        H676   1.111       .  S
C671        H677   1.109       .  S
C674        H678   1.110       .  S
C674        H679   1.110       .  S
C674        H680   1.111       .  S
C681        C682   1.408       .  A
C681        C686   1.401       .  A
C681        H688   1.084       .  S
C682       C1571   1.417       .  A
C683       C1570   1.417   1_455  A
C683        C684   1.401       .  A
C683        C690   1.508       .  S
C684        C685   1.405       .  A
C684        H689   1.084       .  S
C685       C1574   1.415   1_455  A
C686       C1573   1.415       .  A
C686        C687   1.510       .  S
C687        H691   1.111       .  S
C687        H692   1.109       .  S
C687        H693   1.110       .  S
C690        H694   1.109       .  S
C690        H695   1.109       .  S
C690        H696   1.111       .  S
C697        C698   1.408       .  A
C697        C702   1.413       .  A
C697        H704   1.084       .  S
C698        C699   1.413   1_554  A
C699        C700   1.390       .  A
C699        C706   1.508       .  S
C700        C701   1.400   1_556  A
C700        H705   1.086       .  S
C701        C702   1.412       .  A
C702        C703   1.505       .  S
C703        H707   1.111       .  S
C703        H708   1.109       .  S
C703        H709   1.110       .  S
C706        H710   1.111   1_556  S
C706        H711   1.101       .  S
C706        H712   1.109       .  S
C713        C714   1.411       .  A
C713        C718   1.407       .  A
C713        H720   1.083       .  S
C714        C715   1.420   1_556  A
C715        C716   1.405       .  A
C715        C722   1.509       .  S
C716        C717   1.407       .  A
C716        H721   1.084       .  S
C717        C718   1.416   1_554  A
C718        C719   1.508       .  S
C719        H723   1.111       .  S
C719        H724   1.110       .  S
C719        H725   1.110       .  S
C722        H726   1.109       .  S
C722        H727   1.111       .  S
C722        H728   1.110       .  S
C729        C730   1.409       .  A
C729        C734   1.404       .  A
C729        H736   1.084       .  S
C730        C731   1.422       .  A
C731        C732   1.409       .  A
C731        C738   1.508       .  S
C732        C733   1.407       .  A
C732        H737   1.084       .  S
C733        C734   1.416       .  A
C734        C735   1.509       .  S
C735        H739   1.111       .  S
C735        H740   1.109       .  S
C735        H741   1.110       .  S
C738        H742   1.110       .  S
C738        H743   1.110       .  S
C738        H744   1.111       .  S
C745        C746   1.403       .  A
C745        C750   1.405       .  A
C745        H752   1.084       .  S
C746        C747   1.418       .  A
C747        C748   1.407       .  A
C747        C754   1.507       .  S
C748        C749   1.407       .  A
C748        H753   1.084       .  S
C749        C750   1.421       .  A
C750        C751   1.509       .  S
C751        H755   1.111       .  S
C751        H756   1.108       .  S
C751        H757   1.110       .  S
C754        H758   1.110       .  S
C754        H759   1.110       .  S
C754        H760   1.111       .  S
C761        C762   1.406       .  A
C761        C766   1.408       .  A
C761        H768   1.084       .  S
C762        C763   1.416       .  A
C763        C764   1.402       .  A
C763        C770   1.510       .  S
C764        C765   1.404       .  A
C764        H769   1.084       .  S
C765        C766   1.416       .  A
C766        C767   1.508       .  S
C767        H771   1.111       .  S
C767        H772   1.110       .  S
C767        H773   1.110       .  S
C770        H774   1.110       .  S
C770        H775   1.109       .  S
C770        H776   1.111       .  S
C777        C778   1.403       .  A
C777        C782   1.403       .  A
C777        H784   1.084       .  S
C778        C779   1.419       .  A
C779        C780   1.406       .  A
C779        C786   1.508       .  S
C780        C781   1.402       .  A
C780        H785   1.084       .  S
C781        C782   1.415       .  A
C782        C783   1.509       .  S
C783        H787   1.111       .  S
C783        H788   1.108       .  S
C783        H789   1.110       .  S
C786        H790   1.111       .  S
C786        H791   1.110       .  S
C786        H792   1.111       .  S
C793        C794   1.408       .  A
C793        C798   1.407       .  A
C793        H800   1.084       .  S
C794        C795   1.416       .  A
C795        C796   1.408       .  A
C795        C802   1.508       .  S
C796        C797   1.409       .  A
C796        H801   1.084       .  S
C797        C798   1.417       .  A
C798        C799   1.508       .  S
C799        H803   1.111       .  S
C799        H804   1.106       .  S
C799        H805   1.110       .  S
C802        H806   1.110       .  S
C802        H807   1.110       .  S
C802        H808   1.111       .  S
C809        C810   1.408       .  A
C809        C814   1.407       .  A
C809        H816   1.084       .  S
C810        C811   1.416       .  A
C811        C812   1.407       .  A
C811        C818   1.508       .  S
C812        C813   1.407       .  A
C812        H817   1.084       .  S
C813        C814   1.415       .  A
C814        C815   1.508       .  S
C815        H819   1.111       .  S
C815        H820   1.107       .  S
C815        H821   1.110       .  S
C818        H822   1.110       .  S
C818        H823   1.110       .  S
C818        H824   1.111       .  S
C825        C826   1.410   1_556  A
C825        C830   1.406       .  A
C825        H832   1.084       .  S
C826        C827   1.421       .  A
C827        C828   1.408       .  A
C827        C834   1.508       .  S
C828        C829   1.407       .  A
C828        H833   1.084       .  S
C829        C830   1.417   1_554  A
C830        C831   1.508       .  S
C831        H835   1.111       .  S
C831        H836   1.109       .  S
C831        H837   1.110       .  S
C834        H838   1.110       .  S
C834        H839   1.110       .  S
C834        H840   1.111       .  S
C841        C842   1.408       .  A
C841        C846   1.409       .  A
C841        H848   1.083       .  S
C842        C843   1.421   1_556  A
C843        C844   1.405       .  A
C843        C850   1.510       .  S
C844        C845   1.408   1_554  A
C844        H849   1.084       .  S
C845        C846   1.420       .  A
C846        C847   1.506       .  S
C847        H851   1.111       .  S
C847        H852   1.105       .  S
C847        H853   1.110       .  S
C850        H854   1.108       .  S
C850        H855   1.110       .  S
C850        H856   1.111       .  S
C857        C858   1.405   1_554  A
C857        C862   1.411       .  A
C857        H864   1.084       .  S
C858        C859   1.416       .  A
C859        C860   1.406       .  A
C859        C866   1.509       .  S
C860        C861   1.407       .  A
C860        H865   1.084       .  S
C861        C862   1.419   1_556  A
C862        C863   1.507       .  S
C863        H867   1.111       .  S
C863        H868   1.110       .  S
C863        H869   1.109       .  S
C866        H870   1.110       .  S
C866        H871   1.109       .  S
C866        H872   1.111       .  S
C873        C874   1.407   1_556  A
C873        C878   1.406       .  A
C873        H880   1.085       .  S
C874        C875   1.417       .  A
C875        C876   1.408       .  A
C875        C882   1.508       .  S
C876        C877   1.405   1_554  A
C876        H881   1.084       .  S
C877        C878   1.417       .  A
C878        C879   1.507       .  S
C879        H883   1.111       .  S
C879        H884   1.110       .  S
C879        H885   1.103       .  S
C882        H886   1.111       .  S
C882        H887   1.108       .  S
C882        H888   1.111       .  S
O889       Ni895   1.925       .  S
O889        C910   1.270       .  A
O890       Ni913   1.910       .  S
O890        C899   1.268       .  A
O891       Ni895   1.914       .  S
O891       Ni913   1.915   1_556  S
O891       Ni907   1.918       .  S
O891        H914   0.966       .  S
C892        O909   1.276       .  A
C892        O901   1.277   1_556  A
C892       C1289   1.500       .  S
O893       Ni912   1.933       .  S
O893        C899   1.271       .  A
O894       Ni912   1.901       .  S
O894        C896   1.268       .  A
Ni895       O898   1.923       .  S
Ni895       O900   1.894       .  S
C896        O906   1.274   1_554  A
C896       C1321   1.481   1_554  S
O897       Ni913   1.903       .  S
O897        C903   1.270   1_554  A
O898        C903   1.272       .  A
C899       C1254   1.491       .  S
O900        C902   1.267       .  A
O901       Ni912   1.921       .  S
C902        O908   1.276   1_556  A
C902       C1302   1.483       .  S
C903       C1273   1.478   1_556  S
H904        O905   0.966       .  S
O905       Ni913   1.905       .  S
O905       Ni907   1.909   1_554  S
O905       Ni912   1.909       .  S
O906       Ni907   1.937       .  S
Ni907       O911   1.907       .  S
Ni907       O909   1.926       .  S
O908       Ni913   1.944       .  S
C910        O911   1.268       .  A
C910       C1241   1.484       .  S
O915       Ni921   1.929       .  S
O915        C936   1.271       .  A
O916       Ni939   1.900       .  S
O916        C925   1.265       .  A
O917       Ni921   1.912       .  S
O917       Ni939   1.910       .  S
O917       Ni933   1.914       .  S
O917        H940   0.966       .  S
C918        O935   1.273       .  A
C918        O927   1.276       .  A
C918       C1190   1.487       .  S
O919       Ni938   1.933       .  S
O919        C925   1.272       .  A
O920       Ni938   1.896       .  S
O920        C922   1.267       .  A
Ni921       O924   1.928       .  S
Ni921       O926   1.902       .  S
C922        O932   1.276       .  A
C922       C1225   1.484       .  S
O923       Ni939   1.917       .  S
O923        C929   1.274       .  A
O924        C929   1.274       .  A
C925       C1238   1.485       .  S
O926        C928   1.268       .  A
O927       Ni938   1.928       .  S
C928        O934   1.273       .  A
C928       C1206   1.482       .  S
C929       C1177   1.489       .  S
H930        O931   0.966       .  S
O931       Ni939   1.913       .  S
O931       Ni933   1.911       .  S
O931       Ni938   1.912       .  S
O932       Ni933   1.942       .  S
Ni933       O937   1.913       .  S
Ni933       O935   1.912       .  S
O934       Ni939   1.934       .  S
C936        O937   1.269       .  A
C936       C1257   1.489       .  S
O941       Ni947   1.921       .  S
O941        C962   1.268       .  A
O942       Ni965   1.907       .  S
O943       Ni947   1.906       .  S
O943       Ni965   1.905   1_554  S
O943        H966   0.966       .  S
C944        O961   1.275   1_556  A
C944        O953   1.276       .  A
C944       C1145   1.474       .  S
O945       Ni964   1.920       .  S
O945        C951   1.266       .  A
O946       Ni964   1.898       .  S
O946        C948   1.267       .  A
Ni947       O950   1.917       .  S
Ni947       O952   1.900       .  S
C948        O958   1.272   1_556  A
C948       C1305   1.485       .  S
O949       Ni965   1.918       .  S
O949        C955   1.274   1_556  A
O950        C955   1.276       .  A
C951       C1113   1.486       .  S
O952        C954   1.266       .  A
O953       Ni964   1.919       .  S
C954        O960   1.274   1_554  A
C954       C1318   1.483   1_554  S
C955       C1161   1.497       .  S
H956        O957   0.966       .  S
O957       Ni959   1.905   1_556  S
O957       Ni964   1.906       .  S
O958       Ni959   1.935       .  S
Ni959       O963   1.899       .  S
Ni959       O961   1.920       .  S
O960       Ni965   1.938       .  S
C962       C1126   1.478       .  S
O967       Ni973   1.916       .  S
O967        C988   1.264       .  A
O968       Ni991   1.903       .  S
O969       Ni973   1.898       .  S
O969       Ni991   1.901       .  S
O969        H992   0.966   1_655  S
C970        O987   1.271       .  A
C970        O979   1.276       .  A
C970       C1078   1.495       .  S
O971       Ni990   1.919       .  S
O971        C977   1.271       .  A
O972       Ni990   1.896       .  S
O972        C974   1.267       .  A
Ni973       O976   1.908       .  S
Ni973       O978   1.904       .  S
C974        O984   1.275       .  A
C974       C1209   1.492       .  S
O975       Ni991   1.940       .  S
O975        C981   1.283       .  A
O976        C981   1.274       .  A
C977       C1129   1.481       .  S
O978        C980   1.268       .  A
O979       Ni990   1.930       .  S
C980        O986   1.271       .  A
C980       C1222   1.482       .  S
C981       C1094   1.488       .  S
H982        O983   0.966       .  S
O983       Ni985   1.906       .  S
O983       Ni990   1.903       .  S
O984       Ni985   1.945       .  S
Ni985       O989   1.906       .  S
Ni985       O987   1.908       .  S
O986       Ni991   1.930       .  S
C988       C1110   1.486       .  S
O993       Ni999   1.939       .  S
O993       C1014   1.276       .  A
O994      Ni1017   1.898       .  S
O994       C1447   1.265   1_545  A
O995       Ni999   1.917       .  S
O995      Ni1017   1.898   1_556  S
O995      Ni1455   1.908   1_545  S
O995       H1018   0.966       .  S
C996       O1013   1.274   1_554  A
C996       O1005   1.274       .  A
C996       C1142   1.476   1_554  S
O997      Ni1016   1.928       .  S
O997       C1003   1.268       .  A
O998      Ni1016   1.910       .  S
O998       C1000   1.268       .  A
Ni999      O1002   1.935       .  S
Ni999      O1004   1.919       .  S
C1000      O1010   1.270   1_554  A
C1000      C1270   1.491       .  S
O1001     Ni1017   1.904       .  S
O1001      C1007   1.271   1_554  A
O1002      C1007   1.278       .  A
C1003      O1438   1.264       .  A
C1003      C1065   1.487       .  S
O1004      C1006   1.272       .  A
O1005     Ni1016   1.927       .  S
C1006      O1012   1.270   1_556  A
C1006      C1286   1.503       .  S
C1007      C1158   1.490   1_556  S
H1008      O1009   0.966       .  S
O1009     Ni1461   1.916       .  S
O1009     Ni1011   1.902   1_554  S
O1009     Ni1016   1.924       .  S
O1010     Ni1011   1.913       .  S
Ni1011     O1015   1.888       .  S
Ni1011     O1013   1.917       .  S
Ni1011     O1439   1.906       .  S
O1012     Ni1017   1.926       .  S
C1014      O1459   1.263   1_545  A
C1014      C1049   1.491       .  S
O1015      C1458   1.263       .  A
Ni1017     O1453   1.910   1_545  S
O1019     Ni1025   1.924       .  S
O1019      C1040   1.267       .  A
O1020     Ni1043   1.892       .  S
O1020      C1473   1.263   1_545  A
O1021     Ni1025   1.917       .  S
O1021     Ni1043   1.900       .  S
O1021     Ni1481   1.912   1_545  S
O1021      H1044   0.966       .  S
C1022      O1039   1.271       .  A
C1022      O1031   1.276       .  A
C1022      C1081   1.491       .  S
O1023     Ni1042   1.933       .  S
O1023      C1029   1.273       .  A
O1024     Ni1042   1.910       .  S
O1024      C1026   1.269       .  A
Ni1025     O1028   1.926       .  S
Ni1025     O1030   1.911       .  S
C1026      O1036   1.273       .  A
C1026      C1174   1.493       .  S
O1027     Ni1043   1.920       .  S
O1027      C1033   1.278       .  A
O1028      C1033   1.275       .  A
C1029      O1464   1.261       .  A
C1029      C1046   1.485       .  S
O1030      C1032   1.269       .  A
O1031     Ni1042   1.929       .  S
C1032      O1038   1.267       .  A
C1032      C1193   1.491       .  S
C1033      C1097   1.484       .  S
H1034      O1035   0.966       .  S
O1035     Ni1487   1.907       .  S
O1035     Ni1037   1.901       .  S
O1035     Ni1042   1.917       .  S
O1036     Ni1037   1.933       .  S
Ni1037     O1041   1.894       .  S
Ni1037     O1039   1.907       .  S
Ni1037     O1465   1.911       .  S
O1038     Ni1043   1.918       .  S
C1040      O1485   1.265   1_545  A
C1040      C1062   1.489       .  S
O1041      C1484   1.264       .  A
Ni1043     O1479   1.912   1_545  S
C1045      C1046   1.404       .  A
C1045      C1050   1.400       .  A
C1045      H1052   1.084       .  S
C1046      C1491   1.419       .  A
C1047      C1490   1.420   1_545  A
C1047      C1048   1.403       .  A
C1047      C1054   1.508       .  S
C1048      C1049   1.404       .  A
C1048      H1053   1.084       .  S
C1049      C1494   1.421   1_545  A
C1050      C1493   1.417       .  A
C1050      C1051   1.507       .  S
C1051      H1055   1.111       .  S
C1051      H1056   1.110       .  S
C1051      H1057   1.108       .  S
C1054      H1058   1.110       .  S
C1054      H1059   1.110       .  S
C1054      H1060   1.111       .  S
C1061      C1506   1.407       .  A
C1061      C1066   1.401       .  A
C1061      H1068   1.083       .  S
C1062      C1505   1.406   1_545  A
C1062      C1063   1.420       .  A
C1063      C1064   1.400       .  A
C1063      C1070   1.510       .  S
C1064      C1509   1.405   1_545  A
C1064      H1069   1.081       .  S
C1065      C1508   1.406       .  A
C1065      C1066   1.419       .  A
C1066      C1067   1.510       .  S
C1067      H1071   1.111       .  S
C1067      H1072   1.110       .  S
C1067      H1073   1.110       .  S
C1070      H1074   1.110       .  S
C1070      H1075   1.110       .  S
C1070      H1076   1.111       .  S
C1077      C1078   1.408       .  A
C1077      C1082   1.402       .  A
C1077      H1084   1.083       .  S
C1078      C1079   1.420       .  A
C1079      C1080   1.405       .  A
C1079      C1086   1.510       .  S
C1080      C1081   1.407       .  A
C1080      H1085   1.084       .  S
C1081      C1082   1.418       .  A
C1082      C1083   1.509       .  S
C1083      H1087   1.111       .  S
C1083      H1088   1.110       .  S
C1083      H1089   1.110       .  S
C1086      H1090   1.110       .  S
C1086      H1091   1.110       .  S
C1086      H1092   1.111       .  S
C1093      C1094   1.405       .  A
C1093      C1098   1.411       .  A
C1093      H1100   1.084       .  S
C1094      C1095   1.423       .  A
C1095      C1096   1.399       .  A
C1095      C1102   1.512       .  S
C1096      C1097   1.398       .  A
C1096      H1101   1.083       .  S
C1097      C1098   1.418       .  A
C1098      C1099   1.506       .  S
C1099      H1103   1.109       .  S
C1099      H1104   1.111       .  S
C1099      H1105   1.110       .  S
C1102      H1106   1.110       .  S
C1102      H1107   1.109       .  S
C1102      H1108   1.111       .  S
C1109      C1114   1.400       .  A
C1109      H1116   1.084       .  S
C1110      C1111   1.421       .  A
C1111      C1112   1.402       .  A
C1111      C1118   1.510       .  S
C1112      H1117   1.084       .  S
C1113      C1114   1.421       .  A
C1114      C1115   1.510       .  S
C1115      H1119   1.111       .  S
C1115      H1120   1.111       .  S
C1115      H1121   1.109       .  S
C1118      H1122   1.110       .  S
C1118      H1123   1.110       .  S
C1118      H1124   1.111       .  S
C1125      C1126   1.407       .  A
C1125      C1130   1.401       .  A
C1125      H1132   1.084       .  S
C1127      C1128   1.399       .  A
C1127      C1134   1.509       .  S
C1128      C1129   1.408       .  A
C1128      H1133   1.084       .  S
C1130      C1131   1.508       .  S
C1131      H1135   1.111       .  S
C1131      H1136   1.108       .  S
C1131      H1137   1.110       .  S
C1134      H1138   1.109       .  S
C1134      H1139   1.109       .  S
C1134      H1140   1.111       .  S
C1141      C1142   1.407   1_554  A
C1141      C1146   1.412       .  A
C1141      H1148   1.084       .  S
C1142      C1143   1.416       .  A
C1143      C1144   1.394       .  A
C1143      C1150   1.508       .  S
C1144      C1145   1.399       .  A
C1144      H1149   1.086       .  S
C1145      C1146   1.412   1_556  A
C1146      C1147   1.505       .  S
C1147      H1151   1.111       .  S
C1147      H1152   1.109       .  S
C1147      H1153   1.110   1_554  S
C1150      H1154   1.111       .  S
C1150      H1155   1.102       .  S
C1150      H1156   1.109       .  S
C1157      C1158   1.406   1_556  A
C1157      C1162   1.407       .  A
C1157      H1164   1.084       .  S
C1158      C1159   1.417       .  A
C1159      C1160   1.400       .  A
C1159      C1166   1.509       .  S
C1160      C1161   1.410       .  A
C1160      H1165   1.083       .  S
C1161      C1162   1.421   1_554  A
C1162      C1163   1.509       .  S
C1163      H1167   1.111       .  S
C1163      H1168   1.110       .  S
C1163      H1169   1.110       .  S
C1166      H1170   1.110       .  S
C1166      H1171   1.111       .  S
C1166      H1172   1.110       .  S
C1173      C1174   1.407       .  A
C1173      C1178   1.408       .  A
C1173      H1180   1.084       .  S
C1174      C1175   1.421       .  A
C1175      C1176   1.406       .  A
C1175      C1182   1.509       .  S
C1176      C1177   1.404       .  A
C1176      H1181   1.084       .  S
C1177      C1178   1.417       .  A
C1178      C1179   1.508       .  S
C1179      H1183   1.111       .  S
C1179      H1184   1.109       .  S
C1179      H1185   1.110       .  S
C1182      H1186   1.111       .  S
C1182      H1187   1.110       .  S
C1182      H1188   1.111       .  S
C1189      C1190   1.405       .  A
C1189      C1194   1.407       .  A
C1189      H1196   1.084       .  S
C1190      C1191   1.417       .  A
C1191      C1192   1.402       .  A
C1191      C1198   1.507       .  S
C1192      C1193   1.405       .  A
C1192      H1197   1.084       .  S
C1193      C1194   1.421       .  A
C1194      C1195   1.509       .  S
C1195      H1199   1.111       .  S
C1195      H1200   1.109       .  S
C1195      H1201   1.110       .  S
C1198      H1202   1.110       .  S
C1198      H1203   1.110       .  S
C1198      H1204   1.111       .  S
C1205      C1206   1.404       .  A
C1205      C1210   1.408       .  A
C1205      H1212   1.084       .  S
C1206      C1207   1.414       .  A
C1207      C1208   1.403       .  A
C1207      C1214   1.510       .  S
C1208      C1209   1.408       .  A
C1208      H1213   1.084       .  S
C1209      C1210   1.420       .  A
C1210      C1211   1.508       .  S
C1211      H1215   1.111       .  S
C1211      H1216   1.110       .  S
C1211      H1217   1.110       .  S
C1214      H1218   1.110       .  S
C1214      H1219   1.109       .  S
C1214      H1220   1.111       .  S
C1221      C1222   1.402       .  A
C1221      C1226   1.402       .  A
C1221      H1228   1.085       .  S
C1222      C1223   1.416       .  A
C1223      C1224   1.408       .  A
C1223      C1230   1.507       .  S
C1224      C1225   1.405       .  A
C1224      H1229   1.084       .  S
C1225      C1226   1.417       .  A
C1226      C1227   1.510       .  S
C1227      H1231   1.111       .  S
C1227      H1232   1.109       .  S
C1227      H1233   1.110       .  S
C1230      H1234   1.111       .  S
C1230      H1235   1.110       .  S
C1230      H1236   1.111       .  S
C1237      C1238   1.407       .  A
C1237      C1242   1.404       .  A
C1237      H1244   1.084       .  S
C1238      C1239   1.415       .  A
C1239      C1240   1.404       .  A
C1239      C1246   1.509       .  S
C1240      C1241   1.408       .  A
C1240      H1245   1.084       .  S
C1241      C1242   1.413       .  A
C1242      C1243   1.508       .  S
C1243      H1247   1.111       .  S
C1243      H1248   1.107       .  S
C1243      H1249   1.110       .  S
C1246      H1250   1.110       .  S
C1246      H1251   1.110       .  S
C1246      H1252   1.111       .  S
C1253      C1254   1.409       .  A
C1253      C1258   1.407       .  A
C1253      H1260   1.084       .  S
C1254      C1255   1.415       .  A
C1255      C1256   1.405       .  A
C1255      C1262   1.508       .  S
C1256      C1257   1.408       .  A
C1256      H1261   1.084       .  S
C1257      C1258   1.414       .  A
C1258      C1259   1.508       .  S
C1259      H1263   1.111       .  S
C1259      H1264   1.106       .  S
C1259      H1265   1.110       .  S
C1262      H1266   1.110       .  S
C1262      H1267   1.110       .  S
C1262      H1268   1.111       .  S
C1269      C1270   1.409   1_556  A
C1269      C1274   1.402       .  A
C1269      H1276   1.084       .  S
C1270      C1271   1.421       .  A
C1271      C1272   1.402       .  A
C1271      C1278   1.509       .  S
C1272      C1273   1.402       .  A
C1272      H1277   1.085       .  S
C1273      C1274   1.412   1_554  A
C1274      C1275   1.508       .  S
C1275      H1279   1.111       .  S
C1275      H1280   1.109       .  S
C1275      H1281   1.110       .  S
C1278      H1282   1.110       .  S
C1278      H1283   1.110       .  S
C1278      H1284   1.111       .  S
C1285      C1286   1.410       .  A
C1285      C1290   1.411       .  A
C1285      H1292   1.083       .  S
C1286      C1287   1.423   1_556  A
C1287      C1288   1.403       .  A
C1287      C1294   1.510       .  S
C1288      C1289   1.406   1_554  A
C1288      H1293   1.084       .  S
C1289      C1290   1.420       .  A
C1290      C1291   1.507       .  S
C1291      H1295   1.111       .  S
C1291      H1296   1.106       .  S
C1291      H1297   1.110       .  S
C1294      H1298   1.109       .  S
C1294      H1299   1.110       .  S
C1294      H1300   1.111       .  S
C1301      C1302   1.404   1_554  A
C1301      C1306   1.408       .  A
C1301      H1308   1.084       .  S
C1302      C1303   1.417       .  A
C1303      C1304   1.402       .  A
C1303      C1310   1.510       .  S
C1304      C1305   1.404       .  A
C1304      H1309   1.084       .  S
C1305      C1306   1.418   1_556  A
C1306      C1307   1.507       .  S
C1307      H1311   1.111       .  S
C1307      H1312   1.110       .  S
C1307      H1313   1.111       .  S
C1310      H1314   1.110       .  S
C1310      H1315   1.109       .  S
C1310      H1316   1.111       .  S
C1317      C1318   1.404       .  A
C1317      C1322   1.406       .  A
C1317      H1324   1.085       .  S
C1318      C1319   1.415   1_556  A
C1319      C1320   1.405       .  A
C1319      C1326   1.509       .  S
C1320      C1321   1.405   1_554  A
C1320      H1325   1.085       .  S
C1321      C1322   1.418       .  A
C1322      C1323   1.508       .  S
C1323      H1327   1.111       .  S
C1323      H1328   1.110       .  S
C1323      H1329   1.103       .  S
C1326      H1330   1.110       .  S
C1326      H1331   1.108       .  S
C1326      H1332   1.111       .  S
O1333     Ni1339   1.940       .  S
O1333      C1354   1.275       .  A
O1334     Ni1357   1.910       .  S
O1334      C1343   1.269       .  A
O1335     Ni1339   1.911       .  S
O1335     Ni1357   1.913   1_556  S
O1335     Ni1351   1.918       .  S
O1335      H1358   0.966       .  S
C1336      O1353   1.277       .  A
C1336      O1345   1.278   1_556  A
C1336      C1733   1.501       .  S
O1337     Ni1356   1.936       .  S
O1337      C1343   1.273       .  A
O1338     Ni1356   1.906       .  S
O1338      C1340   1.269       .  A
Ni1339     O1342   1.934       .  S
Ni1339     O1344   1.904       .  S
C1340      O1350   1.275   1_554  A
C1340      C1765   1.485   1_554  S
O1341     Ni1357   1.915       .  S
O1341      C1347   1.274   1_554  A
O1342      C1347   1.276       .  A
C1343      C1698   1.490       .  S
O1344      C1346   1.269       .  A
O1345     Ni1356   1.927       .  S
C1346      O1352   1.277   1_556  A
C1346      C1746   1.488       .  S
C1347      C1717   1.494   1_556  S
H1348      O1349   0.966       .  S
O1349     Ni1357   1.909       .  S
O1349     Ni1351   1.908   1_554  S
O1349     Ni1356   1.909       .  S
O1350     Ni1351   1.943       .  S
Ni1351     O1355   1.910       .  S
Ni1351     O1353   1.928       .  S
O1352     Ni1357   1.945       .  S
C1354      O1355   1.269       .  A
C1354      C1685   1.494       .  S
O1359     Ni1365   1.937       .  S
O1359      C1380   1.273       .  A
O1360     Ni1383   1.906       .  S
O1360      C1369   1.266       .  A
O1361     Ni1365   1.913       .  S
O1361     Ni1383   1.912       .  S
O1361     Ni1377   1.910       .  S
O1361      H1384   0.966       .  S
C1362      O1379   1.270       .  A
C1362      O1371   1.276       .  A
C1362      C1634   1.490       .  S
O1363     Ni1382   1.938       .  S
O1363      C1369   1.273       .  A
O1364     Ni1382   1.897       .  S
O1364      C1366   1.267       .  A
Ni1365     O1368   1.930       .  S
Ni1365     O1370   1.898       .  S
C1366      O1376   1.276       .  A
C1366      C1669   1.480       .  S
O1367     Ni1383   1.915       .  S
O1367      C1373   1.274       .  A
O1368      C1373   1.275       .  A
C1369      C1682   1.493       .  S
O1370      C1372   1.267       .  A
O1371     Ni1382   1.931       .  S
C1372      O1378   1.273       .  A
C1372      C1650   1.482       .  S
C1373      C1621   1.491       .  S
H1374      O1375   0.966       .  S
O1375     Ni1383   1.917       .  S
O1375     Ni1377   1.918       .  S
O1375     Ni1382   1.916       .  S
O1376     Ni1377   1.941       .  S
Ni1377     O1381   1.909       .  S
Ni1377     O1379   1.912       .  S
O1378     Ni1383   1.935       .  S
C1380      O1381   1.267       .  A
C1380      C1701   1.490       .  S
O1385     Ni1391   1.924       .  S
O1385      C1406   1.271       .  A
O1386     Ni1409   1.895       .  S
O1387     Ni1391   1.920       .  S
O1387     Ni1409   1.906   1_554  S
O1387      H1410   0.966       .  S
C1388      O1405   1.270   1_556  A
C1388      O1397   1.269       .  A
C1388      C1589   1.474   1_556  S
O1389     Ni1408   1.909       .  S
O1389      C1395   1.263       .  A
O1390     Ni1408   1.897       .  S
O1390      C1392   1.268       .  A
Ni1391     O1394   1.930       .  S
Ni1391     O1396   1.909       .  S
C1392      O1402   1.279   1_556  A
C1392      C1749   1.494       .  S
O1393     Ni1409   1.915       .  S
O1393      C1399   1.271   1_556  A
O1394      C1399   1.274       .  A
C1395      C1557   1.475       .  S
O1396      C1398   1.268       .  A
O1397     Ni1408   1.906       .  S
C1398      O1404   1.275   1_554  A
C1398      C1762   1.493       .  S
C1399      C1605   1.494       .  S
H1400      O1401   0.966       .  S
O1401     Ni1403   1.916   1_556  S
O1401     Ni1408   1.918       .  S
O1402     Ni1403   1.954       .  S
Ni1403     O1407   1.898       .  S
Ni1403     O1405   1.919       .  S
O1404     Ni1409   1.947       .  S
C1406      C1570   1.486       .  S
O1411     Ni1417   1.911       .  S
O1411      C1432   1.264       .  A
O1412     Ni1435   1.896       .  S
O1413     Ni1417   1.897       .  S
O1413     Ni1435   1.895       .  S
O1413      H1436   0.966       .  S
C1414      O1431   1.273       .  A
C1414      O1423   1.277       .  A
C1414      C1522   1.498       .  S
O1415     Ni1434   1.928       .  S
O1415      C1421   1.271       .  A
O1416     Ni1434   1.899       .  S
O1416      C1418   1.268       .  A
Ni1417     O1420   1.910       .  S
Ni1417     O1422   1.903       .  S
C1418      O1428   1.274       .  A
C1418      C1653   1.482       .  S
O1419     Ni1435   1.924       .  S
O1419      C1425   1.279       .  A
O1420      C1425   1.274       .  A
C1421      C1573   1.480       .  S
O1422      C1424   1.267       .  A
O1423     Ni1434   1.923       .  S
C1424      O1430   1.269       .  A
C1424      C1666   1.484       .  S
C1425      C1538   1.480       .  S
H1426      O1427   0.966       .  S
O1427     Ni1429   1.905       .  S
O1427     Ni1434   1.902       .  S
O1428     Ni1429   1.935       .  S
Ni1429     O1433   1.905       .  S
Ni1429     O1431   1.914       .  S
O1430     Ni1435   1.927       .  S
C1432      C1554   1.483       .  S
O1437     Ni1443   1.936       .  S
O1437      C1458   1.274       .  A
O1438     Ni1461   1.889       .  S
O1439     Ni1443   1.915       .  S
O1439     Ni1461   1.895   1_556  S
O1439      H1462   0.966       .  S
C1440      O1457   1.275   1_554  A
C1440      O1449   1.274       .  A
C1440      C1586   1.471       .  S
O1441     Ni1460   1.924       .  S
O1441      C1447   1.267       .  A
O1442     Ni1460   1.916       .  S
O1442      C1444   1.269       .  A
Ni1443     O1446   1.934       .  S
Ni1443     O1448   1.916       .  S
C1444      O1454   1.270   1_554  A
C1444      C1714   1.500       .  S
O1445     Ni1461   1.915       .  S
O1445      C1451   1.274   1_554  A
O1446      C1451   1.278       .  A
C1447      C1509   1.489       .  S
O1448      C1450   1.271       .  A
O1449     Ni1460   1.923       .  S
C1450      O1456   1.270   1_556  A
C1450      C1730   1.498       .  S
C1451      C1602   1.499       .  S
H1452      O1453   0.966       .  S
O1453     Ni1455   1.900   1_554  S
O1453     Ni1460   1.922       .  S
O1454     Ni1455   1.919       .  S
Ni1455     O1459   1.891       .  S
Ni1455     O1457   1.916       .  S
O1456     Ni1461   1.928       .  S
C1458      C1493   1.484       .  S
O1463     Ni1469   1.924       .  S
O1463      C1484   1.267       .  A
O1464     Ni1487   1.891       .  S
O1465     Ni1469   1.926       .  S
O1465     Ni1487   1.903       .  S
O1465      H1488   0.966       .  S
C1466      O1483   1.274       .  A
C1466      O1475   1.278       .  A
C1466      C1525   1.500       .  S
O1467     Ni1486   1.938       .  S
O1467      C1473   1.275       .  A
O1468     Ni1486   1.921       .  S
O1468      C1470   1.271       .  A
Ni1469     O1472   1.924       .  S
Ni1469     O1474   1.916       .  S
C1470      O1480   1.271       .  A
C1470      C1618   1.500       .  S
O1471     Ni1487   1.904       .  S
O1471      C1477   1.272       .  A
O1472      C1477   1.272       .  A
C1473      C1490   1.491       .  S
O1474      C1476   1.270       .  A
O1475     Ni1486   1.928       .  S
C1476      O1482   1.268       .  A
C1476      C1637   1.495       .  S
C1477      C1541   1.470       .  S
H1478      O1479   0.966       .  S
O1479     Ni1481   1.899       .  S
O1479     Ni1486   1.916       .  S
O1480     Ni1481   1.917       .  S
Ni1481     O1485   1.900       .  S
Ni1481     O1483   1.913       .  S
O1482     Ni1487   1.920       .  S
C1484      C1506   1.488       .  S
C1489      C1490   1.405       .  A
C1489      C1494   1.404       .  A
C1489      H1496   1.084       .  S
C1491      C1492   1.403       .  A
C1491      C1498   1.508       .  S
C1492      C1493   1.404       .  A
C1492      H1497   1.084       .  S
C1494      C1495   1.508       .  S
C1495      H1499   1.111       .  S
C1495      H1500   1.110       .  S
C1495      H1501   1.110       .  S
C1498      H1502   1.109       .  S
C1498      H1503   1.110       .  S
C1498      H1504   1.111       .  S
C1505      C1510   1.402       .  A
C1505      H1512   1.082       .  S
C1506      C1507   1.419       .  A
C1507      C1508   1.398       .  A
C1507      C1514   1.510       .  S
C1508      H1513   1.083       .  S
C1509      C1510   1.419       .  A
C1510      C1511   1.510       .  S
C1511      H1515   1.111       .  S
C1511      H1516   1.110       .  S
C1511      H1517   1.110       .  S
C1514      H1518   1.110       .  S
C1514      H1519   1.110       .  S
C1514      H1520   1.111       .  S
C1521      C1522   1.408       .  A
C1521      C1526   1.404       .  A
C1521      H1528   1.083       .  S
C1522      C1523   1.421       .  A
C1523      C1524   1.405       .  A
C1523      C1530   1.511       .  S
C1524      C1525   1.409       .  A
C1524      H1529   1.083       .  S
C1525      C1526   1.421       .  A
C1526      C1527   1.509       .  S
C1527      H1531   1.111       .  S
C1527      H1532   1.109       .  S
C1527      H1533   1.110       .  S
C1530      H1534   1.110       .  S
C1530      H1535   1.110       .  S
C1530      H1536   1.111       .  S
C1537      C1538   1.406       .  A
C1537      C1542   1.408       .  A
C1537      H1544   1.084       .  S
C1538      C1539   1.421       .  A
C1539      C1540   1.395       .  A
C1539      C1546   1.512       .  S
C1540      C1541   1.396       .  A
C1540      H1545   1.083       .  S
C1541      C1542   1.412       .  A
C1542      C1543   1.505       .  S
C1543      H1547   1.109       .  S
C1543      H1548   1.111       .  S
C1543      H1549   1.110       .  S
C1546      H1550   1.111       .  S
C1546      H1551   1.109       .  S
C1546      H1552   1.111       .  S
C1553      C1558   1.399       .  A
C1553      H1560   1.084       .  S
C1554      C1555   1.424       .  A
C1555      C1556   1.398       .  A
C1555      C1562   1.510       .  S
C1556      H1561   1.084       .  S
C1557      C1558   1.418       .  A
C1558      C1559   1.511       .  S
C1559      H1563   1.111       .  S
C1559      H1564   1.111       .  S
C1559      H1565   1.109       .  S
C1562      H1566   1.110       .  S
C1562      H1567   1.110       .  S
C1562      H1568   1.111       .  S
C1569      C1570   1.408       .  A
C1569      C1574   1.401       .  A
C1569      H1576   1.084       .  S
C1571      C1572   1.401       .  A
C1571      C1578   1.508       .  S
C1572      C1573   1.405       .  A
C1572      H1577   1.084       .  S
C1574      C1575   1.510       .  S
C1575      H1579   1.111       .  S
C1575      H1580   1.109       .  S
C1575      H1581   1.110       .  S
C1578      H1582   1.109       .  S
C1578      H1583   1.109       .  S
C1578      H1584   1.111       .  S
C1585      C1586   1.408       .  A
C1585      C1590   1.413       .  A
C1585      H1592   1.084       .  S
C1586      C1587   1.413   1_554  A
C1587      C1588   1.390       .  A
C1587      C1594   1.508       .  S
C1588      C1589   1.399   1_556  A
C1588      H1593   1.086       .  S
C1589      C1590   1.412       .  A
C1590      C1591   1.505       .  S
C1591      H1595   1.111       .  S
C1591      H1596   1.109       .  S
C1591      H1597   1.110       .  S
C1594      H1598   1.111   1_556  S
C1594      H1599   1.101       .  S
C1594      H1600   1.109       .  S
C1601      C1602   1.411       .  A
C1601      C1606   1.407       .  A
C1601      H1608   1.084       .  S
C1602      C1603   1.419   1_556  A
C1603      C1604   1.405       .  A
C1603      C1610   1.508       .  S
C1604      C1605   1.408       .  A
C1604      H1609   1.084       .  S
C1605      C1606   1.416   1_554  A
C1606      C1607   1.508       .  S
C1607      H1611   1.111       .  S
C1607      H1612   1.110       .  S
C1607      H1613   1.110       .  S
C1610      H1614   1.109       .  S
C1610      H1615   1.111       .  S
C1610      H1616   1.110       .  S
C1617      C1618   1.409       .  A
C1617      C1622   1.404       .  A
C1617      H1624   1.084       .  S
C1618      C1619   1.422       .  A
C1619      C1620   1.409       .  A
C1619      C1626   1.508       .  S
C1620      C1621   1.407       .  A
C1620      H1625   1.084       .  S
C1621      C1622   1.416       .  A
C1622      C1623   1.509       .  S
C1623      H1627   1.111       .  S
C1623      H1628   1.109       .  S
C1623      H1629   1.110       .  S
C1626      H1630   1.110       .  S
C1626      H1631   1.110       .  S
C1626      H1632   1.111       .  S
C1633      C1634   1.403       .  A
C1633      C1638   1.404       .  A
C1633      H1640   1.084       .  S
C1634      C1635   1.418       .  A
C1635      C1636   1.407       .  A
C1635      C1642   1.507       .  S
C1636      C1637   1.407       .  A
C1636      H1641   1.084       .  S
C1637      C1638   1.422       .  A
C1638      C1639   1.509       .  S
C1639      H1643   1.111       .  S
C1639      H1644   1.108       .  S
C1639      H1645   1.110       .  S
C1642      H1646   1.110       .  S
C1642      H1647   1.110       .  S
C1642      H1648   1.111       .  S
C1649      C1650   1.406       .  A
C1649      C1654   1.408       .  A
C1649      H1656   1.084       .  S
C1650      C1651   1.416       .  A
C1651      C1652   1.402       .  A
C1651      C1658   1.510       .  S
C1652      C1653   1.404       .  A
C1652      H1657   1.084       .  S
C1653      C1654   1.416       .  A
C1654      C1655   1.508       .  S
C1655      H1659   1.111       .  S
C1655      H1660   1.110       .  S
C1655      H1661   1.110       .  S
C1658      H1662   1.110       .  S
C1658      H1663   1.109       .  S
C1658      H1664   1.111       .  S
C1665      C1666   1.403       .  A
C1665      C1670   1.403       .  A
C1665      H1672   1.084       .  S
C1666      C1667   1.419       .  A
C1667      C1668   1.407       .  A
C1667      C1674   1.508       .  S
C1668      C1669   1.403       .  A
C1668      H1673   1.084       .  S
C1669      C1670   1.415       .  A
C1670      C1671   1.509       .  S
C1671      H1675   1.111       .  S
C1671      H1676   1.109       .  S
C1671      H1677   1.110       .  S
C1674      H1678   1.111       .  S
C1674      H1679   1.110       .  S
C1674      H1680   1.111       .  S
C1681      C1682   1.408       .  A
C1681      C1686   1.407       .  A
C1681      H1688   1.084       .  S
C1682      C1683   1.416       .  A
C1683      C1684   1.408       .  A
C1683      C1690   1.508       .  S
C1684      C1685   1.409       .  A
C1684      H1689   1.084       .  S
C1685      C1686   1.417       .  A
C1686      C1687   1.508       .  S
C1687      H1691   1.111       .  S
C1687      H1692   1.106       .  S
C1687      H1693   1.110       .  S
C1690      H1694   1.110       .  S
C1690      H1695   1.110       .  S
C1690      H1696   1.111       .  S
C1697      C1698   1.408       .  A
C1697      C1702   1.407       .  A
C1697      H1704   1.084       .  S
C1698      C1699   1.416       .  A
C1699      C1700   1.406       .  A
C1699      C1706   1.508       .  S
C1700      C1701   1.407       .  A
C1700      H1705   1.084       .  S
C1701      C1702   1.415       .  A
C1702      C1703   1.508       .  S
C1703      H1707   1.111       .  S
C1703      H1708   1.107       .  S
C1703      H1709   1.110       .  S
C1706      H1710   1.110       .  S
C1706      H1711   1.110       .  S
C1706      H1712   1.111       .  S
C1713      C1714   1.410   1_556  A
C1713      C1718   1.406       .  A
C1713      H1720   1.084       .  S
C1714      C1715   1.421       .  A
C1715      C1716   1.407       .  A
C1715      C1722   1.508       .  S
C1716      C1717   1.407       .  A
C1716      H1721   1.084       .  S
C1717      C1718   1.417   1_554  A
C1718      C1719   1.508       .  S
C1719      H1723   1.111       .  S
C1719      H1724   1.109       .  S
C1719      H1725   1.110       .  S
C1722      H1726   1.110       .  S
C1722      H1727   1.110       .  S
C1722      H1728   1.111       .  S
C1729      C1730   1.407       .  A
C1729      C1734   1.408       .  A
C1729      H1736   1.083       .  S
C1730      C1731   1.421   1_556  A
C1731      C1732   1.405       .  A
C1731      C1738   1.510       .  S
C1732      C1733   1.408   1_554  A
C1732      H1737   1.084       .  S
C1733      C1734   1.420       .  A
C1734      C1735   1.506       .  S
C1735      H1739   1.111       .  S
C1735      H1740   1.105       .  S
C1735      H1741   1.110       .  S
C1738      H1742   1.108       .  S
C1738      H1743   1.110       .  S
C1738      H1744   1.111       .  S
C1745      C1746   1.405   1_554  A
C1745      C1750   1.411       .  A
C1745      H1752   1.084       .  S
C1746      C1747   1.416       .  A
C1747      C1748   1.406       .  A
C1747      C1754   1.509       .  S
C1748      C1749   1.407       .  A
C1748      H1753   1.084       .  S
C1749      C1750   1.419   1_556  A
C1750      C1751   1.507       .  S
C1751      H1755   1.111       .  S
C1751      H1756   1.110       .  S
C1751      H1757   1.109       .  S
C1754      H1758   1.110       .  S
C1754      H1759   1.109       .  S
C1754      H1760   1.111       .  S
C1761      C1762   1.407   1_556  A
C1761      C1766   1.406       .  A
C1761      H1768   1.085       .  S
C1762      C1763   1.417       .  A
C1763      C1764   1.408       .  A
C1763      C1770   1.508       .  S
C1764      C1765   1.405   1_554  A
C1764      H1769   1.084       .  S
C1765      C1766   1.417       .  A
C1766      C1767   1.507       .  S
C1767      H1771   1.111       .  S
C1767      H1772   1.110       .  S
C1767      H1773   1.102       .  S
C1770      H1774   1.111       .  S
C1770      H1775   1.108       .  S
C1770      H1776   1.111       .  S
