geometry optimzed in LAMMPS
_audit_creation_date              2020-11-30 
_audit_creation_method            'lammps2cif' 
_symmetry_space_group_name_H-M    'P1' 
_symmetry_Int_Tables_number       1 
_symmetry_cell_setting            triclinic 
loop_ 
_symmetry_equiv_pos_as_xyz 
  x,y,z 
_cell_length_a                    65.43983547 
_cell_length_b                    65.93997155957821 
_cell_length_c                    65.97861032497005 
_cell_angle_alpha                 89.98019920575874 
_cell_angle_beta                  90.28708459016005 
_cell_angle_gamma                 90.22564552795038 
loop_ 
_atom_site_label 
_atom_site_type_symbol 
_atom_site_fract_x 
_atom_site_fract_y 
_atom_site_fract_z 
_atom_site_charge 
In1        In  0.81639641  0.41623894  0.70459764     1.36900
C2          C  0.78529402  0.42021457  0.73022617     0.79100
O3          O  0.82113271  0.38870189  0.72403906    -0.59400
O4          O  0.84565286  0.40950516  0.72130197    -0.50300
C5          C  0.81679742  0.39575615  0.66945204     0.71700
O6          O  0.80059010  0.40275093  0.67696161    -0.45100
C7          C  0.82490270  0.45479569  0.69562856     0.76500
O8          O  0.78496461  0.40784765  0.71561653    -0.57000
O9          O  0.83709323  0.44346765  0.70516203    -0.47100
O10         O  0.80117773  0.43102868  0.73108643    -0.53400
C11         C  0.83916541  0.39324636  0.72910091     0.86600
O12         O  0.83262406  0.40019168  0.67945488    -0.55300
O13         O  0.80877757  0.44598039  0.68973374    -0.58600
In14       In  0.91341603  0.31789168  0.80256031     1.36900
C15         C  0.91727828  0.28778021  0.77613398     0.79100
O16         O  0.88454479  0.32442940  0.78527776    -0.59400
O17         O  0.90623908  0.34808526  0.78827836    -0.50300
C18         C  0.89307491  0.31630196  0.83747217     0.71700
O19         O  0.89448176  0.30145765  0.82556990    -0.45100
C20         C  0.95301993  0.32263875  0.81168062     0.76500
O21         O  0.90968139  0.28535665  0.79350785    -0.57000
O22         O  0.94252312  0.33639134  0.80342963    -0.47100
O23         O  0.92295071  0.30569694  0.77241323    -0.53400
C24         C  0.88918230  0.34251636  0.78115376     0.86600
O25         O  0.90281357  0.33181063  0.83180522    -0.55300
O26         O  0.94291303  0.30695150  0.81604714    -0.58600
In27       In  0.70186071  0.41778030  0.82739510     1.36900
C28         C  0.72645578  0.42075658  0.79533101     0.79100
O29         O  0.68476918  0.44606596  0.81839021    -0.59400
O30         O  0.70243749  0.44684916  0.84522072    -0.50300
C31         C  0.66764604  0.39531205  0.82646955     0.71700
O32         O  0.67693025  0.40102851  0.81080974    -0.45100
C33         C  0.72564271  0.39592693  0.85229809     0.76500
O34         O  0.71085386  0.40952732  0.79573131    -0.57000
O35         O  0.71691472  0.41196950  0.85795133    -0.47100
O36         O  0.72937217  0.43079192  0.81136627    -0.53400
C37         C  0.69134642  0.45657595  0.83299260     0.86600
O38         O  0.67526346  0.40212878  0.84269688    -0.55300
O39         O  0.72213781  0.39134023  0.83408676    -0.58600
In40       In  0.80119958  0.32092920  0.92532951     1.36900
C41         C  0.77463803  0.29058284  0.92845699     0.79100
O42         O  0.81600367  0.31054411  0.95443606    -0.59400
O43         O  0.80196546  0.33928355  0.95409631    -0.50300
C44         C  0.83464943  0.31800079  0.90262052     0.71700
O45         O  0.82222096  0.30367812  0.90524671    -0.45100
C46         C  0.77864960  0.34607328  0.90253353     0.76500
O47         O  0.79264676  0.28806694  0.92231019    -0.57000
O48         O  0.78720411  0.35174846  0.91877199    -0.47100
O49         O  0.77066321  0.30849202  0.93379240    -0.53400
C50         C  0.81100809  0.32598335  0.96445992     0.86600
O51         O  0.83050998  0.33377812  0.91258411    -0.55300
O52         O  0.78217219  0.32788627  0.89799965    -0.58600
In53       In  0.58310348  0.29838932  0.82367753     1.36900
C54         C  0.57774452  0.27243266  0.79317939     0.79100
O55         O  0.61059942  0.27857544  0.82814148    -0.59400
O56         O  0.59137892  0.28374484  0.85329799    -0.50300
C57         C  0.60543844  0.33246709  0.82410559     0.71700
O58         O  0.60079729  0.32315863  0.80801772    -0.45100
C59         C  0.54388826  0.30722024  0.83053283     0.76500
O60         O  0.58704971  0.28912137  0.79106364    -0.57000
O61         O  0.55473405  0.29695769  0.84254092    -0.47100
O62         O  0.57083854  0.26950808  0.81073063    -0.53400
C63         C  0.60707375  0.27501565  0.84656182     0.86600
O64         O  0.59761012  0.32490119  0.83981037    -0.55300
O65         O  0.55357709  0.31424626  0.81559248    -0.58600
In66       In  0.68242269  0.20136408  0.92025340     1.36900
C67         C  0.71259001  0.22808028  0.92463488     0.79100
O68         O  0.67582642  0.21793262  0.89126230    -0.59400
O69         O  0.65224175  0.21573935  0.91302358    -0.50300
C70         C  0.68299901  0.16680802  0.89955259     0.71700
O71         O  0.69830808  0.17838483  0.90104821    -0.45100
C72         C  0.67636161  0.19298202  0.95933093     0.76500
O73         O  0.71577664  0.21005842  0.91907855    -0.57000
O74         O  0.66397550  0.20307624  0.94873273    -0.47100
O75         O  0.69414013  0.23199492  0.92815337    -0.53400
C76         C  0.65778522  0.22251260  0.89601040     0.86600
O77         O  0.66763468  0.17258826  0.90942347    -0.55300
O78         O  0.69138800  0.18624278  0.94957066    -0.58600
In79       In  0.81832432  0.29922688  0.58594692     1.36900
C80         C  0.84166010  0.27524979  0.60885535     0.79100
O81         O  0.83419346  0.32549771  0.60123698    -0.59400
O82         O  0.80192320  0.32459208  0.60192296    -0.50300
C83         C  0.82403961  0.31019831  0.54740159     0.71700
O84         O  0.83854259  0.30439618  0.55863503    -0.45100
C85         C  0.78806651  0.27228552  0.58227485     0.76500
O86         O  0.84590336  0.27935123  0.59063969    -0.57000
O87         O  0.78566471  0.28931109  0.59067855    -0.47100
O88         O  0.82569852  0.28374503  0.61521778    -0.53400
C89         C  0.81800437  0.33363858  0.60751651     0.86600
O90         O  0.80717332  0.31151963  0.55637661    -0.55300
O91         O  0.80577331  0.26946284  0.57546722    -0.58600
In92       In  0.91313387  0.19903448  0.68457488     1.36900
C93         C  0.91795338  0.22528205  0.71482111     0.79100
O94         O  0.94231066  0.18449135  0.69528390    -0.59400
O95         O  0.94181042  0.19730418  0.66596530    -0.50300
C96         C  0.89089922  0.16486526  0.68612920     0.71700
O97         O  0.89443808  0.17577813  0.70141036    -0.45100
C98         C  0.89055083  0.22233342  0.65998589     0.76500
O99         O  0.90873218  0.20857044  0.71683727    -0.57000
O100        O  0.90676663  0.21381004  0.65428191    -0.47100
O101        O  0.92498177  0.22830921  0.69731570    -0.53400
C102        C  0.95229935  0.18882631  0.67958707     0.86600
O103        O  0.89938690  0.17111467  0.67018412    -0.55300
O104        O  0.88585897  0.21854909  0.67809561    -0.58600
In105      In  0.58405352  0.17703839  0.70854066     1.36900
C106        C  0.57893004  0.20847377  0.73333878     0.79100
O107        O  0.55497505  0.18653062  0.69277029    -0.59400
O108        O  0.55478213  0.15899212  0.70905972    -0.50300
C109        C  0.60647474  0.17789869  0.67461577     0.71700
O110        O  0.60383189  0.19307180  0.68585850    -0.45100
C111        C  0.60652620  0.15305628  0.73262735     0.76500
O112        O  0.58750216  0.21010176  0.71632207    -0.57000
O113        O  0.59106853  0.14673211  0.72297651    -0.47100
O114        O  0.57294407  0.19075491  0.73744293    -0.53400
C115        C  0.54455488  0.17174522  0.69908686     0.86600
O116        O  0.59705609  0.16223872  0.68044197    -0.55300
O117        O  0.61066053  0.17145245  0.72942480    -0.58600
In118      In  0.67919851  0.07853719  0.80838966     1.36900
C119        C  0.70848596  0.07428514  0.78088933     0.79100
O120        O  0.68799131  0.04904576  0.82375365    -0.59400
O121        O  0.66011692  0.05024741  0.80750341    -0.50300
C122        C  0.68144531  0.10113341  0.84171266     0.71700
O123        O  0.69667003  0.09751201  0.83068988    -0.45100
C124        C  0.65468631  0.10282391  0.78701479     0.76500
O125        O  0.71220500  0.07958144  0.79891121    -0.57000
O126        O  0.64897248  0.08573862  0.79360449    -0.47100
O127        O  0.68990904  0.07073139  0.77732817    -0.53400
C128        C  0.67271157  0.03941299  0.81705426     0.86600
O129        O  0.66537348  0.09183570  0.83647918    -0.55300
O130        O  0.67271311  0.10758327  0.79193932    -0.58600
In131      In  0.69993225  0.17844751  0.58697212     1.36900
C132        C  0.72654916  0.20888946  0.58291712     0.79100
O133        O  0.71850116  0.17150348  0.61441637    -0.59400
O134        O  0.71491648  0.14811093  0.59267709    -0.50300
C135        C  0.66659975  0.17913658  0.61036533     0.71700
O136        O  0.67817361  0.19423253  0.60790559    -0.45100
C137        C  0.68953154  0.17409797  0.54800305     0.76500
O138        O  0.70849716  0.21148450  0.58898324    -0.57000
O139        O  0.69924892  0.16075070  0.55770425    -0.47100
O140        O  0.73068630  0.19075718  0.57859463    -0.53400
C141        C  0.72265873  0.15356198  0.60939930     0.86600
O142        O  0.67149980  0.16390799  0.59991502    -0.55300
O143        O  0.68406583  0.18894257  0.55866062    -0.58600
In144      In  0.79492396  0.07977637  0.68633120     1.36900
C145        C  0.76855949  0.07568154  0.71683931     0.79100
O146        O  0.77775430  0.10797343  0.67871040    -0.59400
O147        O  0.77985406  0.08551736  0.65594580    -0.50300
C148        C  0.82931112  0.10176109  0.68732358     0.71700
O149        O  0.81818142  0.09910953  0.70263123    -0.45100
C150        C  0.80481373  0.04090941  0.68128172     0.76500
O151        O  0.78626163  0.08295004  0.71914617    -0.57000
O152        O  0.79448726  0.05076019  0.66850715    -0.47100
O153        O  0.76452329  0.07038949  0.69891518    -0.53400
C154        C  0.77307294  0.10269090  0.66092105     0.86600
O155        O  0.82330514  0.09229569  0.67177309    -0.55300
O156        O  0.81109470  0.05137749  0.69602809    -0.58600
In157      In  0.19845301  0.08060226  0.68741920     1.36900
C158        C  0.22515016  0.07712043  0.71764238     0.79100
O159        O  0.18392322  0.05180641  0.69884890    -0.59400
O160        O  0.19510593  0.05214638  0.66888333    -0.50300
C161        C  0.16470484  0.10341309  0.68644663     0.71700
O162        O  0.17347445  0.09818698  0.70267034    -0.45100
C163        C  0.22340158  0.10200058  0.66379038     0.76500
O164        O  0.20850389  0.08653664  0.71955275    -0.57000
O165        O  0.21641593  0.08485871  0.65866170    -0.47100
O166        O  0.22764027  0.06921087  0.70046736    -0.53400
C167        C  0.18734430  0.04179453  0.68297037     0.86600
O168        O  0.17270722  0.09608821  0.67074076    -0.55300
O169        O  0.21730233  0.10808233  0.68082341    -0.58600
In170      In  0.29657058  0.17788873  0.59002632     1.36900
C171        C  0.27036524  0.20878452  0.58765852     0.79100
O172        O  0.31211292  0.18850306  0.56156816    -0.59400
O173        O  0.29660213  0.16031240  0.56090957    -0.50300
C174        C  0.33180908  0.17799902  0.61071424     0.71700
O175        O  0.32240900  0.19390844  0.60577803    -0.45100
C176        C  0.27408059  0.15281777  0.61267502     0.76500
O177        O  0.28573393  0.20886671  0.59926526    -0.57000
O178        O  0.28067886  0.14782684  0.59544165    -0.47100
O179        O  0.26863290  0.19293113  0.57711721    -0.53400
C180        C  0.30634440  0.17355713  0.55105205     0.86600
O181        O  0.32373086  0.16196556  0.60395842    -0.55300
O182        O  0.27890095  0.17055294  0.61794941    -0.58600
In183      In  0.07958074  0.19895554  0.68391387     1.36900
C184        C  0.07542958  0.22553789  0.71408525     0.79100
O185        O  0.10853375  0.21556233  0.67723832    -0.59400
O186        O  0.08516415  0.21636723  0.65497340    -0.50300
C187        C  0.10191364  0.16510251  0.68476541     0.71700
O188        O  0.09923245  0.17625359  0.70001230    -0.45100
C189        C  0.04041757  0.18856216  0.67878806     0.76500
O190        O  0.08268389  0.20802738  0.71670786    -0.57000
O191        O  0.05079735  0.19690408  0.66502865    -0.47100
O192        O  0.06988188  0.22908137  0.69612695    -0.53400
C193        C  0.10280749  0.22220937  0.66024871     0.86600
O194        O  0.09224365  0.17075320  0.66916705    -0.55300
O195        O  0.05056152  0.18437857  0.69451003    -0.58600
In196      In  0.17866723  0.29859563  0.58988152     1.36900
C197        C  0.20899165  0.27189119  0.58732884     0.79100
O198        O  0.17231529  0.27902772  0.61682948    -0.59400
O199        O  0.14764717  0.28551119  0.59705020    -0.50300
C200        C  0.18027899  0.33314090  0.61094468     0.71700
O201        O  0.19603168  0.32388125  0.60520183    -0.45100
C202        C  0.17319652  0.30801702  0.55068405     0.76500
O203        O  0.21021217  0.28779763  0.59789504    -0.57000
O204        O  0.16071612  0.29738965  0.56063162    -0.47100
O205        O  0.19238648  0.27000795  0.57773927    -0.53400
C206        C  0.15368370  0.27631886  0.61275645     0.86600
O207        O  0.16377173  0.32512782  0.60505397    -0.55300
O208        O  0.18788436  0.31472883  0.56117831    -0.58600
In209      In  0.29822589  0.41460185  0.82718622     1.36900
C210        C  0.27203219  0.41883738  0.79664274     0.79100
O211        O  0.27885792  0.38726062  0.83289526    -0.59400
O212        O  0.28303092  0.40776452  0.85720783    -0.50300
C213        C  0.33218444  0.39229295  0.82583295     0.71700
O214        O  0.32112721  0.39590190  0.81060152    -0.45100
C215        C  0.30883084  0.45355271  0.83118215     0.76500
O216        O  0.28885745  0.40976004  0.79493224    -0.57000
O217        O  0.29918570  0.44397101  0.84467356    -0.47100
O218        O  0.26888086  0.42615692  0.81399541    -0.53400
C219        C  0.27475007  0.39155939  0.85100381     0.86600
O220        O  0.32631837  0.40095701  0.84182840    -0.55300
O221        O  0.31423756  0.44275137  0.81642960    -0.58600
In222      In  0.19888572  0.31491775  0.92163840     1.36900
C223        C  0.22573850  0.28493354  0.92575690     0.79100
O224        O  0.21681593  0.32258177  0.89386279    -0.59400
O225        O  0.21493333  0.34494681  0.91668540    -0.50300
C226        C  0.16491097  0.31411510  0.89889965     0.71700
O227        O  0.17614857  0.29884802  0.90145077    -0.45100
C228        C  0.18788072  0.31946448  0.96031716     0.76500
O229        O  0.20864215  0.28270113  0.91711156    -0.57000
O230        O  0.19633613  0.33330516  0.95014927    -0.47100
O231        O  0.22881891  0.30246961  0.93276049    -0.53400
C232        C  0.22190594  0.34011720  0.89956367     0.86600
O233        O  0.17051859  0.32944591  0.90892727    -0.55300
O234        O  0.18395700  0.30366333  0.95024732    -0.58600
In235      In  0.18031528  0.41651779  0.70649728     1.36900
C236        C  0.21024539  0.41893508  0.73377478     0.79100
O237        O  0.19207419  0.44533201  0.69278238    -0.59400
O238        O  0.16185254  0.44516776  0.70397688    -0.50300
C239        C  0.18141569  0.39599957  0.67176238     0.71700
O240        O  0.19726027  0.40036511  0.68180340    -0.45100
C241        C  0.15500212  0.39366905  0.72844995     0.76500
O242        O  0.21157716  0.40844618  0.71786565    -0.57000
O243        O  0.15064370  0.41152241  0.72310131    -0.47100
O244        O  0.19362799  0.42834571  0.73547529    -0.53400
C245        C  0.17616181  0.45542668  0.69628819     0.86600
O246        O  0.16520373  0.40328661  0.67894659    -0.55300
O247        O  0.17209913  0.38765132  0.72224073    -0.58600
In248      In  0.08048201  0.31859937  0.80193669     1.36900
C249        C  0.07632371  0.28822259  0.77555468     0.79100
O250        O  0.05148969  0.30792367  0.81642770    -0.59400
O251        O  0.05153361  0.33714987  0.80332606    -0.50300
C252        C  0.10255827  0.31658835  0.83624381     0.71700
O253        O  0.09813170  0.30133309  0.82561406    -0.45100
C254        C  0.10332770  0.34312609  0.77897341     0.76500
O255        O  0.08675780  0.28678034  0.79160987    -0.57000
O256        O  0.08699676  0.34896148  0.78718244    -0.47100
O257        O  0.06779835  0.30519066  0.77324081    -0.53400
C258        C  0.04124772  0.32343190  0.81190374     0.86600
O259        O  0.09473208  0.33283634  0.82983522    -0.55300
O260        O  0.10782170  0.32498398  0.78280854    -0.58600
In261      In  0.41641344  0.29617399  0.82617915     1.36900
C262        C  0.42027925  0.26989936  0.79573079     0.79100
O263        O  0.44541872  0.31226415  0.81707676    -0.59400
O264        O  0.44551966  0.29537851  0.84428323    -0.50300
C265        C  0.39442920  0.33023893  0.82505829     0.71700
O266        O  0.39800345  0.31958064  0.80964880    -0.45100
C267        C  0.39313059  0.27365204  0.85044788     0.76500
O268        O  0.41234721  0.28717080  0.79356998    -0.57000
O269        O  0.40959147  0.28178387  0.85639546    -0.47100
O270        O  0.42654677  0.26631234  0.81345596    -0.53400
C271        C  0.45572973  0.30575307  0.83187100     0.86600
O272        O  0.40298199  0.32391531  0.84101219    -0.55300
O273        O  0.38850430  0.27759571  0.83231738    -0.58600
In274      In  0.31903259  0.19715501  0.92240259     1.36900
C275        C  0.28838599  0.22330670  0.92614002     0.79100
O276        O  0.30790120  0.18187487  0.95061597    -0.59400
O277        O  0.33719150  0.19556525  0.95128593    -0.50300
C278        C  0.31916086  0.16293524  0.90084667     0.71700
O279        O  0.30351016  0.17375955  0.90309261    -0.45100
C280        C  0.34343362  0.22025309  0.89984063     0.76500
O281        O  0.28631174  0.20619733  0.91781600    -0.57000
O282        O  0.34837977  0.21440243  0.91740792    -0.47100
O283        O  0.30608448  0.22675731  0.93293485    -0.53400
C284        C  0.32338640  0.18651877  0.96107192     0.86600
O285        O  0.33469085  0.16924841  0.91037908    -0.55300
O286        O  0.32626721  0.21384289  0.89389675    -0.58600
In287      In  0.41694065  0.17818256  0.70663904     1.36900
C288        C  0.42090519  0.20878714  0.73276663     0.79100
O289        O  0.38934919  0.17282150  0.72568348    -0.59400
O290        O  0.40964864  0.14827810  0.72106626    -0.50300
C291        C  0.39506884  0.17810619  0.67232207     0.71700
O292        O  0.40044474  0.19408131  0.68143309    -0.45100
C293        C  0.45624225  0.17227342  0.69814948     0.76500
O294        O  0.41127202  0.21045336  0.71622595    -0.57000
O295        O  0.44598105  0.16050286  0.70920971    -0.47100
O296        O  0.42884480  0.19163922  0.73548867    -0.53400
C297        C  0.39360905  0.15459381  0.72949116     0.86600
O298        O  0.40195894  0.16208879  0.68021508    -0.55300
O299        O  0.44590427  0.18632479  0.69022698    -0.58600
In300      In  0.32015002  0.08060067  0.80410573     1.36900
C301        C  0.28901212  0.07679457  0.77845185     0.79100
O302        O  0.32525824  0.10790589  0.78463619    -0.59400
O303        O  0.35057863  0.08899151  0.79087934    -0.50300
C304        C  0.31957473  0.10131953  0.83884847     0.71700
O305        O  0.30375542  0.09774479  0.82847474    -0.45100
C306        C  0.32607124  0.04140885  0.81202565     0.76500
O307        O  0.28741189  0.08552229  0.79538684    -0.57000
O308        O  0.33852311  0.05195231  0.80197843    -0.47100
O309        O  0.30651562  0.06971997  0.77496972    -0.53400
C310        C  0.34397004  0.10455430  0.78190116     0.86600
O311        O  0.33555871  0.09338616  0.83188203    -0.55300
O312        O  0.31125984  0.05132590  0.81899797    -0.58600
In313      In  0.70493882  0.81539736  0.58628986     1.36900
C314        C  0.73088710  0.78451263  0.58331626     0.79100
O315        O  0.68889545  0.80661752  0.55726001    -0.59400
O316        O  0.70598151  0.83384417  0.55767681    -0.50300
C317        C  0.67083264  0.81472039  0.60864451     0.71700
O318        O  0.68026344  0.79898453  0.60336313    -0.45100
C319        C  0.72843763  0.83949801  0.60887259     0.76500
O320        O  0.71438057  0.78336890  0.59303316    -0.57000
O321        O  0.71981463  0.84556626  0.59285178    -0.47100
O322        O  0.73369070  0.80128520  0.57459076    -0.53400
C323        C  0.69554847  0.82154629  0.54728333     0.86600
O324        O  0.67816195  0.83085305  0.60136431    -0.55300
O325        O  0.72479756  0.82125209  0.61318758    -0.58600
In326      In  0.79869786  0.91414151  0.68646316     1.36900
C327        C  0.77333863  0.91639935  0.71796111     0.79100
O328        O  0.81450804  0.94309845  0.69541767    -0.59400
O329        O  0.79562895  0.94330041  0.66931960    -0.50300
C330        C  0.83395319  0.89392868  0.68601988     0.71700
O331        O  0.82502598  0.89922169  0.70203604    -0.45100
C332        C  0.77690337  0.89099663  0.66144304     0.76500
O333        O  0.78945581  0.90597915  0.71839693    -0.57000
O334        O  0.78075381  0.88612608  0.67953286    -0.47100
O335        O  0.77028840  0.92538039  0.70138022    -0.53400
C336        C  0.80652000  0.95346033  0.68143203     0.86600
O337        O  0.82554954  0.90032191  0.67002746    -0.55300
O338        O  0.78412744  0.90795926  0.65620744    -0.58600
In339      In  0.82333392  0.69565929  0.58723668     1.36900
C340        C  0.79308451  0.72242144  0.58471065     0.79100
O341        O  0.82972880  0.71287451  0.61580461    -0.59400
O342        O  0.85296401  0.71212205  0.59365687    -0.50300
C343        C  0.82215310  0.66068829  0.60780480     0.71700
O344        O  0.80628787  0.66984534  0.60205168    -0.45100
C345        C  0.82882775  0.68725777  0.54796186     0.76500
O346        O  0.79155350  0.70607387  0.59453507    -0.57000
O347        O  0.84272612  0.69470208  0.55901259    -0.47100
O348        O  0.81000646  0.72479160  0.57598251    -0.53400
C349        C  0.84731675  0.71869766  0.61069823     0.86600
O350        O  0.83852186  0.66873963  0.60172456    -0.55300
O351        O  0.81271209  0.68287428  0.55741304    -0.58600
In352      In  0.91810178  0.79760347  0.68419190     1.36900
C353        C  0.92237523  0.77112772  0.71444938     0.79100
O354        O  0.89017071  0.77880869  0.67800507    -0.59400
O355        O  0.91163797  0.78226955  0.65438530    -0.50300
C356        C  0.89596859  0.83167278  0.68518226     0.71700
O357        O  0.89905108  0.82053802  0.70038848    -0.45100
C358        C  0.95731869  0.80698488  0.67825531     0.76500
O359        O  0.91511989  0.78865418  0.71692563    -0.57000
O360        O  0.94627097  0.79846945  0.66507467    -0.47100
O361        O  0.92796510  0.76750855  0.69656995    -0.53400
C362        C  0.89513185  0.77423727  0.66015819     0.86600
O363        O  0.90505288  0.82581475  0.66944530    -0.55300
O364        O  0.94789447  0.81186956  0.69412587    -0.58600
In365      In  0.58446057  0.81568548  0.70352072     1.36900
C366        C  0.57957281  0.78530707  0.72978797     0.79100
O367        O  0.61290136  0.82278189  0.72131905    -0.59400
O368        O  0.58994888  0.84519679  0.72007869    -0.50300
C369        C  0.60762198  0.81452929  0.67012291     0.71700
O370        O  0.60505945  0.79962965  0.68178876    -0.45100
C371        C  0.54524329  0.82092940  0.69277119     0.76500
O372        O  0.58750500  0.78289788  0.71257614    -0.57000
O373        O  0.55587006  0.83455626  0.70117722    -0.47100
O374        O  0.57385625  0.80319030  0.73325597    -0.53400
C375        C  0.60729686  0.84017313  0.72679178     0.86600
O376        O  0.59733487  0.82991939  0.67496763    -0.55300
O377        O  0.55515300  0.80510909  0.68865131    -0.58600
In378      In  0.67973636  0.91325040  0.80487407     1.36900
C379        C  0.71203267  0.91733182  0.78070597     0.79100
O380        O  0.67476476  0.88612847  0.78495091    -0.59400
O381        O  0.65034852  0.90677647  0.78812701    -0.50300
C382        C  0.67843535  0.89164102  0.83906823     0.71700
O383        O  0.69483685  0.89794212  0.83130162    -0.45100
C384        C  0.67274238  0.95191142  0.81458858     0.76500
O385        O  0.71206862  0.90578992  0.79595947    -0.57000
O386        O  0.66141939  0.94178465  0.80282672    -0.47100
O387        O  0.69572159  0.92714716  0.77839017    -0.53400
C388        C  0.65672279  0.89066628  0.78004343     0.86600
O389        O  0.66257061  0.89728194  0.82976387    -0.55300
O390        O  0.68700196  0.94178156  0.82252294    -0.58600
In391      In  0.58171779  0.69831228  0.82343634     1.36900
C392        C  0.57775004  0.72375841  0.79229382     0.79100
O393        O  0.55186676  0.68285993  0.81595677    -0.59400
O394        O  0.55324071  0.70189839  0.84167211    -0.50300
C395        C  0.60329571  0.66394159  0.82232245     0.71700
O396        O  0.60050295  0.67502074  0.80700918    -0.45100
C397        C  0.60512681  0.72029414  0.84820865     0.76500
O398        O  0.58569399  0.70643464  0.79054872    -0.57000
O399        O  0.59036032  0.70970901  0.85442704    -0.47100
O400        O  0.57146392  0.72768718  0.80987901    -0.53400
C401        C  0.54227021  0.69102165  0.83031930     0.86600
O402        O  0.59420625  0.67002264  0.83795608    -0.55300
O403        O  0.60808269  0.71913448  0.82940142    -0.58600
In404      In  0.67791852  0.79557911  0.92280143     1.36900
C405        C  0.70959788  0.77019106  0.92520792     0.79100
O406        O  0.68660239  0.81089666  0.95209658    -0.59400
O407        O  0.65825378  0.79548927  0.95069194    -0.50300
C408        C  0.67728585  0.83001531  0.90140560     0.71700
O409        O  0.69330711  0.82286503  0.90925464    -0.45100
C410        C  0.65441986  0.77184839  0.89997624     0.76500
O411        O  0.71003192  0.78626670  0.91485804    -0.57000
O412        O  0.64869333  0.77841868  0.91699532    -0.47100
O413        O  0.69315357  0.76754390  0.93471558    -0.53400
C414        C  0.67092529  0.80508776  0.96151156     0.86600
O415        O  0.66134549  0.82011524  0.90556488    -0.55300
O416        O  0.67206948  0.77750633  0.89485580    -0.58600
In417      In  0.70111101  0.58215222  0.82464606     1.36900
C418        C  0.72749160  0.57762504  0.79428453     0.79100
O419        O  0.71912802  0.61048180  0.83094904    -0.59400
O420        O  0.71721343  0.58844634  0.85416845    -0.50300
C421        C  0.66603860  0.60271183  0.82337827     0.71700
O422        O  0.67627503  0.59853968  0.80781197    -0.45100
C423        C  0.69064353  0.54370191  0.83159057     0.76500
O424        O  0.71157612  0.58825299  0.79281230    -0.57000
O425        O  0.70105741  0.55415098  0.84388024    -0.47100
O426        O  0.72946390  0.56884863  0.81113023    -0.53400
C427        C  0.72433436  0.60533415  0.84861350     0.86600
O428        O  0.67343929  0.59563357  0.83957298    -0.55300
O429        O  0.68468736  0.55336600  0.81616881    -0.58600
In430      In  0.80036422  0.67915210  0.92197406     1.36900
C431        C  0.77337869  0.70932255  0.92441171     0.79100
O432        O  0.78135525  0.67310440  0.89451206    -0.59400
O433        O  0.78568273  0.64888559  0.91513576    -0.50300
C434        C  0.83535656  0.67998748  0.90122824     0.71700
O435        O  0.82635992  0.69575351  0.90717112    -0.45100
C436        C  0.80937891  0.67408850  0.96118946     0.76500
O437        O  0.78918042  0.71037710  0.91356088    -0.57000
O438        O  0.79976060  0.66101263  0.95092017    -0.47100
O439        O  0.77180665  0.69301892  0.93426018    -0.53400
C440        C  0.77742372  0.65492333  0.89888396     0.86600
O441        O  0.82704512  0.66372827  0.90703770    -0.55300
O442        O  0.81551405  0.68905202  0.95095728    -0.58600
In443      In  0.82156023  0.58050457  0.70713269     1.36900
C444        C  0.79054629  0.57673090  0.73298941     0.79100
O445        O  0.81400090  0.55222514  0.68971287    -0.59400
O446        O  0.83996566  0.55171481  0.70884817    -0.50300
C447        C  0.82132755  0.60143481  0.67241167     0.71700
O448        O  0.80520625  0.59546700  0.68099309    -0.45100
C449        C  0.84516515  0.60425368  0.72985603     0.76500
O450        O  0.78920784  0.58646645  0.71658380    -0.57000
O451        O  0.85133201  0.58764682  0.72263833    -0.47100
O452        O  0.80762101  0.56841103  0.73576319    -0.53400
C453        C  0.82837522  0.54187874  0.69708800     0.86600
O454        O  0.83750676  0.59602299  0.68132907    -0.55300
O455        O  0.82707578  0.60875008  0.72506826    -0.58600
In456      In  0.91817721  0.67981720  0.80410228     1.36900
C457        C  0.92202068  0.70949614  0.77702368     0.79100
O458        O  0.94751162  0.69036471  0.81825864    -0.59400
O459        O  0.94694164  0.66120649  0.80496532    -0.50300
C460        C  0.89689353  0.68074181  0.83862880     0.71700
O461        O  0.90086258  0.69638031  0.82836923    -0.45100
C462        C  0.89479351  0.65548522  0.78166886     0.76500
O463        O  0.91281566  0.71174111  0.79364329    -0.57000
O464        O  0.91111570  0.64959113  0.79002184    -0.47100
O465        O  0.92956186  0.69211015  0.77456517    -0.53400
C466        C  0.95749721  0.67478396  0.81351317     0.86600
O467        O  0.90469609  0.66478106  0.83164870    -0.55300
O468        O  0.89039596  0.67371999  0.78520316    -0.58600
In469      In  0.41463885  0.70192615  0.82730282     1.36900
C470        C  0.41733100  0.72749820  0.79592435     0.79100
O471        O  0.38743316  0.72109541  0.83390880    -0.59400
O472        O  0.40797586  0.71536651  0.85805624    -0.50300
C473        C  0.39418129  0.66661964  0.82710085     0.71700
O474        O  0.39716701  0.67711218  0.81142260    -0.45100
C475        C  0.45424453  0.69359352  0.83227132     0.76500
O476        O  0.40825458  0.71061400  0.79477274    -0.57000
O477        O  0.44440817  0.70470556  0.84425887    -0.47100
O478        O  0.42510119  0.73104700  0.81308164    -0.53400
C479        C  0.39196838  0.72427537  0.85221610     0.86600
O480        O  0.40220024  0.67398790  0.84289153    -0.55300
O481        O  0.44350451  0.68605818  0.81825799    -0.58600
In482      In  0.31914810  0.80094423  0.92474157     1.36900
C483        C  0.28905908  0.77367180  0.92744300     0.79100
O484        O  0.32694066  0.78509557  0.89600253    -0.59400
O485        O  0.34823608  0.78318331  0.92014370    -0.50300
C486        C  0.31828667  0.83498138  0.90257225     0.71700
O487        O  0.30262898  0.82445537  0.90626345    -0.45100
C488        C  0.32426551  0.81119058  0.96371507     0.76500
O489        O  0.28650207  0.79101691  0.91978796    -0.57000
O490        O  0.33845792  0.80409410  0.95303014    -0.47100
O491        O  0.30686002  0.77063778  0.93409385    -0.53400
C492        C  0.34366394  0.77801008  0.90226075     0.86600
O493        O  0.33424853  0.82868572  0.91129211    -0.55300
O494        O  0.30790672  0.81418231  0.95402586    -0.58600
In495      In  0.41762505  0.81670564  0.70360434     1.36900
C496        C  0.41976340  0.78666071  0.73071446     0.79100
O497        O  0.44655173  0.80554867  0.68871265    -0.59400
O498        O  0.44689639  0.83458234  0.70223518    -0.50300
C499        C  0.39661205  0.81808493  0.66882318     0.71700
O500        O  0.40058753  0.80171460  0.67790413    -0.45100
C501        C  0.39512669  0.84112251  0.72686709     0.76500
O502        O  0.40956336  0.78514369  0.71447348    -0.57000
O503        O  0.41256066  0.84614429  0.72038654    -0.47100
O504        O  0.42933286  0.80319105  0.73247086    -0.53400
C505        C  0.45697040  0.82105076  0.69325273     0.86600
O506        O  0.40426378  0.83357592  0.67712143    -0.55300
O507        O  0.38918487  0.82391637  0.72092339    -0.58600
In508      In  0.32161200  0.91442300  0.80285389     1.36900
C509        C  0.29057485  0.91756588  0.77674444     0.79100
O510        O  0.31049524  0.94404955  0.81521272    -0.59400
O511        O  0.34066507  0.94307723  0.80408257    -0.50300
C512        C  0.31995947  0.89460665  0.83826306     0.71700
O513        O  0.30465676  0.89762190  0.82705654    -0.45100
C514        C  0.34613931  0.89101105  0.78047890     0.76500
O515        O  0.28878044  0.90920130  0.79383215    -0.57000
O516        O  0.35113792  0.90860694  0.78620931    -0.47100
O517        O  0.30828655  0.92417200  0.77315723    -0.53400
C518        C  0.32655413  0.95382005  0.81127676     0.86600
O519        O  0.33621314  0.90255192  0.83171149    -0.55300
O520        O  0.32884627  0.88535680  0.78667905    -0.58600
In521      In  0.29896380  0.82232836  0.58653108     1.36900
C522        C  0.27373437  0.79057129  0.58342981     0.79100
O523        O  0.27963828  0.82767151  0.61390776    -0.59400
O524        O  0.28457244  0.85250975  0.59430426    -0.50300
C525        C  0.33439124  0.82149637  0.60675412     0.71700
O526        O  0.32447743  0.80578926  0.60201000    -0.45100
C527        C  0.30753670  0.82872082  0.54746396     0.76500
O528        O  0.28981038  0.79029358  0.59403951    -0.57000
O529        O  0.29670347  0.84054374  0.55783596    -0.47100
O530        O  0.27085764  0.80705419  0.57416777    -0.53400
C531        C  0.27599509  0.84601722  0.61012926     0.86600
O532        O  0.32661958  0.83771009  0.60020972    -0.55300
O533        O  0.31478113  0.81407664  0.55742035    -0.58600
In534      In  0.19935601  0.91560368  0.68589159     1.36900
C535        C  0.22649672  0.91849928  0.71600423     0.79100
O536        O  0.21625206  0.88742256  0.67771853    -0.59400
O537        O  0.21693441  0.91186083  0.65684828    -0.50300
C538        C  0.16514179  0.89353189  0.68496979     0.71700
O539        O  0.17404993  0.89848777  0.70122703    -0.45100
C540        C  0.18815683  0.95433374  0.68215812     0.76500
O541        O  0.20988180  0.90889121  0.71778958    -0.57000
O542        O  0.19623939  0.94445159  0.66796333    -0.47100
O543        O  0.22891692  0.92664297  0.69891036    -0.53400
C544        C  0.22267087  0.89405498  0.66097790     0.86600
O545        O  0.17321795  0.90084110  0.66926790    -0.55300
O546        O  0.18462361  0.94391813  0.69776704    -0.58600
In547      In  0.29967754  0.58049233  0.82781243     1.36900
C548        C  0.27240191  0.57860012  0.79770950     0.79100
O549        O  0.31232494  0.55149010  0.81498094    -0.59400
O550        O  0.30286608  0.55135467  0.84551027    -0.50300
C551        C  0.33461679  0.60176059  0.82720490     0.71700
O552        O  0.32397127  0.59826170  0.81163125    -0.45100
C553        C  0.27708119  0.60316169  0.85292742     0.76500
O554        O  0.28965844  0.58696272  0.79580209    -0.57000
O555        O  0.28260432  0.58535775  0.85737870    -0.47100
O556        O  0.26932776  0.57097452  0.81496428    -0.53400
C557        C  0.30957723  0.54117601  0.83080504     0.86600
O558        O  0.32795320  0.59330964  0.84301728    -0.55300
O559        O  0.28346476  0.60914809  0.83595923    -0.58600
In560      In  0.20140538  0.67920256  0.92425490     1.36900
C561        C  0.22790576  0.70991188  0.92673217     0.79100
O562        O  0.18625208  0.69073214  0.95258449    -0.59400
O563        O  0.20081597  0.66226305  0.95388174    -0.50300
C564        C  0.16691819  0.67898504  0.90231577     0.71700
O565        O  0.17679081  0.69492702  0.90634434    -0.45100
C566        C  0.22449533  0.65404880  0.90232604     0.76500
O567        O  0.21086246  0.71138220  0.91784786    -0.57000
O568        O  0.21701595  0.64897308  0.91920765    -0.47100
O569        O  0.23118070  0.69272941  0.93443279    -0.53400
C570        C  0.19160126  0.67596673  0.96346681     0.86600
O571        O  0.17415131  0.66325644  0.91047367    -0.55300
O572        O  0.21973708  0.67171220  0.89677979    -0.58600
In573      In  0.18387807  0.69834101  0.58808259     1.36900
C574        C  0.15918187  0.72054676  0.61107930     0.79100
O575        O  0.16801858  0.67112122  0.60114284    -0.59400
O576        O  0.19998008  0.67376704  0.60544138    -0.50300
C577        C  0.17785907  0.68761104  0.54964186     0.71700
O578        O  0.16574546  0.69880734  0.55928041    -0.45100
C579        C  0.21411189  0.72531043  0.58375007     0.76500
O580        O  0.15346440  0.71268597  0.59455607    -0.57000
O581        O  0.21621163  0.70913922  0.59379087    -0.47100
O582        O  0.17741063  0.71663948  0.61586886    -0.53400
C583        C  0.18392912  0.66374614  0.60900597     0.86600
O584        O  0.19271094  0.68120940  0.56004718    -0.55300
O585        O  0.19680808  0.72714722  0.57552527    -0.58600
In586      In  0.08399041  0.79491035  0.68350694     1.36900
C587        C  0.08031568  0.76979876  0.71475274     0.79100
O588        O  0.05561048  0.81183119  0.69184137    -0.59400
O589        O  0.05499107  0.79395698  0.66523417    -0.50300
C590        C  0.10469768  0.82967740  0.68340952     0.71700
O591        O  0.09901452  0.82095765  0.69942709    -0.45100
C592        C  0.10742531  0.77164563  0.66032698     0.76500
O593        O  0.09137235  0.78548878  0.71535068    -0.57000
O594        O  0.09044842  0.77850950  0.65434858    -0.47100
O595        O  0.07081878  0.76736761  0.69827704    -0.53400
C596        C  0.04514326  0.80509235  0.67723194     0.86600
O597        O  0.09898891  0.82091650  0.66734934    -0.55300
O598        O  0.11233823  0.77691921  0.67804925    -0.58600
In599      In  0.18137371  0.58209107  0.70600391     1.36900
C600        C  0.21072069  0.57995575  0.73429814     0.79100
O601        O  0.17212447  0.61232510  0.71843414    -0.59400
O602        O  0.15226137  0.58732589  0.72303229    -0.50300
C603        C  0.18267730  0.60231841  0.67108290     0.71700
O604        O  0.19810898  0.59992048  0.68234656    -0.45100
C605        C  0.17667181  0.54294018  0.69619445     0.76500
O606        O  0.21403540  0.58617888  0.71652966    -0.57000
O607        O  0.16249461  0.55335683  0.70373632    -0.47100
O608        O  0.19247493  0.57471026  0.73735528    -0.53400
C609        C  0.15571839  0.60592769  0.72611562     0.86600
O610        O  0.16677575  0.59343182  0.67726715    -0.55300
O611        O  0.19274044  0.55292228  0.69279080    -0.58600
In612      In  0.08471962  0.67858286  0.80389141     1.36900
C613        C  0.08097979  0.70878592  0.77757058     0.79100
O614        O  0.11187075  0.67326260  0.78418682    -0.59400
O615        O  0.09084434  0.64907703  0.78818327    -0.50300
C616        C  0.10611124  0.67850125  0.83850849     0.71700
O617        O  0.10078436  0.69455280  0.82958412    -0.45100
C618        C  0.04557719  0.67372705  0.81369225     0.76500
O619        O  0.09167250  0.71021949  0.79349540    -0.57000
O620        O  0.05550219  0.66041187  0.80424306    -0.47100
O621        O  0.07185146  0.69204630  0.77556607    -0.53400
C622        C  0.10685842  0.65537382  0.77957330     0.86600
O623        O  0.09983490  0.66251793  0.82999673    -0.55300
O624        O  0.05615028  0.68876914  0.81920094    -0.58600
In625      In  0.82055227  0.29914739  0.42158153     1.36900
C626        C  0.78993173  0.27275748  0.42541274     0.79100
O627        O  0.82681950  0.27960611  0.39496569    -0.59400
O628        O  0.85125361  0.28508878  0.41543432    -0.50300
C629        C  0.81872163  0.33275731  0.39899046     0.71700
O630        O  0.80338468  0.32197859  0.40312828    -0.45100
C631        C  0.82560362  0.30968436  0.46024134     0.76500
O632        O  0.78806389  0.28948048  0.41634249    -0.57000
O633        O  0.83854973  0.29930925  0.45076623    -0.47100
O634        O  0.80738928  0.26988478  0.43300728    -0.53400
C635        C  0.84519637  0.27625084  0.39952697     0.86600
O636        O  0.83508552  0.32671482  0.40714155    -0.55300
O637        O  0.81084980  0.31564929  0.44948515    -0.58600
In638      In  0.91761063  0.20137808  0.32528022     1.36900
C639        C  0.92241773  0.22827937  0.29567016     0.79100
O640        O  0.89017287  0.21994133  0.33194984    -0.59400
O641        O  0.91216361  0.21670016  0.35535443    -0.50300
C642        C  0.89474422  0.16781236  0.32392760     0.71700
O643        O  0.89911665  0.17811913  0.30845190    -0.45100
C644        C  0.95634437  0.18981122  0.32925214     0.76500
O645        O  0.91159746  0.21250777  0.29382219    -0.57000
O646        O  0.94678118  0.19878944  0.34314868    -0.47100
O647        O  0.93094741  0.23012107  0.31274324    -0.53400
C648        C  0.89536341  0.22431610  0.34982273     0.86600
O649        O  0.90297588  0.17420958  0.34003758    -0.55300
O650        O  0.94553375  0.18552390  0.31397498    -0.58600
In651      In  0.70073825  0.18048361  0.42223139     1.36900
C652        C  0.72694864  0.21100625  0.42601510     0.79100
O653        O  0.68652137  0.19152490  0.45092882    -0.59400
O654        O  0.69790913  0.16157584  0.45051043    -0.50300
C655        C  0.66643403  0.18083683  0.40029198     0.71700
O656        O  0.67651475  0.19664456  0.40429144    -0.45100
C657        C  0.72510965  0.15670019  0.40055090     0.76500
O658        O  0.71066213  0.21233142  0.41577138    -0.57000
O659        O  0.71631971  0.15065547  0.41643206    -0.47100
O660        O  0.72933839  0.19418944  0.43483036    -0.53400
C661        C  0.68987057  0.17550722  0.46079508     0.86600
O662        O  0.67355426  0.16498760  0.40823759    -0.55300
O663        O  0.72106213  0.17471258  0.39572317    -0.58600
In664      In  0.79768407  0.08416138  0.32429865     1.36900
C665        C  0.77032135  0.08163827  0.29433342     0.79100
O666        O  0.81098523  0.05536245  0.31220768    -0.59400
O667        O  0.80109838  0.05540649  0.34261220    -0.50300
C668        C  0.83209308  0.10574368  0.32307356     0.71700
O669        O  0.82006402  0.10399053  0.30820073    -0.45100
C670        C  0.77670974  0.10677363  0.35030008     0.76500
O671        O  0.78836518  0.08778648  0.29166691    -0.57000
O672        O  0.77926735  0.08796658  0.35277596    -0.47100
O673        O  0.76637164  0.07692422  0.31239627    -0.53400
C674        C  0.80824875  0.04521417  0.32813587     0.86600
O675        O  0.82701149  0.09542795  0.33838087    -0.55300
O676        O  0.78513225  0.11385659  0.33468507    -0.58600
In677      In  0.67839704  0.08348211  0.20422522     1.36900
C678        C  0.70864561  0.08034532  0.23122090     0.79100
O679        O  0.67001889  0.11172274  0.22080039    -0.59400
O680        O  0.64924813  0.08706815  0.22208243    -0.50300
C681        C  0.67911049  0.10503269  0.16989307     0.71700
O682        O  0.69511157  0.09966811  0.17911655    -0.45100
C683        C  0.67309983  0.04491644  0.19331829     0.76500
O684        O  0.71022173  0.09069867  0.21521730    -0.57000
O685        O  0.65885484  0.05569961  0.20016410    -0.47100
O686        O  0.69169574  0.07145576  0.23312050    -0.53400
C687        C  0.65331030  0.10498882  0.22750202     0.86600
O688        O  0.66287024  0.09847526  0.17776825    -0.55300
O689        O  0.68965803  0.05436606  0.19074744    -0.58600
In690      In  0.58225780  0.17894053  0.30425189     1.36900
C691        C  0.57851749  0.20908765  0.27763077     0.79100
O692        O  0.60899876  0.17206811  0.28487275    -0.59400
O693        O  0.58853298  0.14792312  0.29080352    -0.50300
C694        C  0.60404158  0.18009503  0.33841039     0.71700
O695        O  0.60142838  0.19537145  0.32724575    -0.45100
C696        C  0.54316289  0.17485449  0.31423619     0.76500
O697        O  0.58822335  0.21100102  0.29409951    -0.57000
O698        O  0.55260538  0.16198800  0.30376467    -0.47100
O699        O  0.57041021  0.19188784  0.27518806    -0.53400
C700        C  0.60434990  0.15381626  0.28161312     0.86600
O701        O  0.59478032  0.16437418  0.33244103    -0.55300
O702        O  0.55412931  0.18933248  0.32048390    -0.58600
In703      In  0.68071235  0.20055803  0.08586651     1.36900
C704        C  0.71078791  0.22751012  0.08273687     0.79100
O705        O  0.68995872  0.18519899  0.05680096    -0.59400
O706        O  0.66238345  0.20172455  0.05707422    -0.50300
C707        C  0.68048623  0.16628283  0.10726574     0.71700
O708        O  0.69668527  0.17586363  0.10325697    -0.45100
C709        C  0.65664687  0.22274887  0.10947580     0.76500
O710        O  0.71368620  0.20978982  0.08937280    -0.57000
O711        O  0.65084485  0.21569802  0.09259277    -0.47100
O712        O  0.69269672  0.23100987  0.07725124    -0.53400
C713        C  0.67499314  0.19180078  0.04672112     0.86600
O714        O  0.66463524  0.17369063  0.09929431    -0.55300
O715        O  0.67462431  0.21790342  0.11442602    -0.58600
In716      In  0.58198185  0.29619421  0.18379244     1.36900
C717        C  0.57832508  0.27034438  0.21470394     0.79100
O718        O  0.55392101  0.31368801  0.19254564    -0.59400
O719        O  0.55211696  0.29472839  0.16678774    -0.50300
C720        C  0.60361899  0.33045945  0.18409422     0.71700
O721        O  0.59881907  0.32094338  0.19995092    -0.45100
C722        C  0.60560550  0.27394140  0.15962580     0.76500
O723        O  0.58770252  0.28702584  0.21624371    -0.57000
O724        O  0.58890084  0.28151438  0.15370741    -0.47100
O725        O  0.57062333  0.26721933  0.19744254    -0.53400
C726        C  0.54277448  0.30628442  0.17878116     0.86600
O727        O  0.59648810  0.32282839  0.16800272    -0.55300
O728        O  0.61011528  0.27804438  0.17775968    -0.58600
In729      In  0.81758206  0.41677995  0.30324573     1.36900
C730        C  0.78734550  0.42133693  0.27680324     0.79100
O731        O  0.80756381  0.44534801  0.31872273    -0.59400
O732        O  0.83518058  0.44587590  0.30216027    -0.50300
C733        C  0.81655217  0.39482838  0.33711973     0.71700
O734        O  0.80182650  0.39585337  0.32479429    -0.45100
C735        C  0.84284035  0.39393360  0.28171311     0.76500
O736        O  0.78456490  0.41424316  0.29434090    -0.57000
O737        O  0.84832871  0.41049472  0.28966619    -0.47100
O738        O  0.80555261  0.42627458  0.27310934    -0.53400
C739        C  0.82226578  0.45582187  0.31213731     0.86600
O740        O  0.83158273  0.40593667  0.33254480    -0.55300
O741        O  0.82455689  0.38906092  0.28517288    -0.58600
In742      In  0.91886324  0.32132656  0.20855055     1.36900
C743        C  0.92336841  0.29089800  0.23451836     0.79100
O744        O  0.94687378  0.31196736  0.19174761    -0.59400
O745        O  0.94792851  0.33964947  0.20789130    -0.50300
C746        C  0.89683427  0.31986664  0.17464617     0.71700
O747        O  0.90247278  0.30427259  0.18413658    -0.45100
C748        C  0.89534608  0.34476791  0.23142518     0.76500
O749        O  0.91279363  0.28955093  0.21855546    -0.57000
O750        O  0.91209440  0.35089790  0.22416666    -0.47100
O751        O  0.93196881  0.30786293  0.23696233    -0.53400
C752        C  0.95756744  0.32682117  0.19750957     0.86600
O753        O  0.90346502  0.33629455  0.18200952    -0.55300
O754        O  0.89076586  0.32681394  0.22669760    -0.58600
In755      In  0.69893101  0.41563853  0.18457227     1.36900
C756        C  0.72524810  0.42074131  0.21465907     0.79100
O757        O  0.71685407  0.38747537  0.17866856    -0.59400
O758        O  0.71566317  0.40961460  0.15547431    -0.50300
C759        C  0.66483065  0.39363267  0.18510155     0.71700
O760        O  0.67616289  0.39596972  0.20041012    -0.45100
C761        C  0.68909186  0.45444479  0.17963719     0.76500
O762        O  0.70787356  0.41278837  0.21719578    -0.57000
O763        O  0.69669936  0.44382117  0.16571120    -0.47100
O764        O  0.72883962  0.42625918  0.19673609    -0.53400
C765        C  0.72256410  0.39270110  0.16122410     0.86600
O766        O  0.67044866  0.40351099  0.16972477    -0.55300
O767        O  0.68518031  0.44470495  0.19559889    -0.58600
In768      In  0.80005504  0.31946355  0.09043426     1.36900
C769        C  0.77301216  0.28983388  0.08517372     0.79100
O770        O  0.78123522  0.32544494  0.11785482    -0.59400
O771        O  0.78587190  0.34967567  0.09726047    -0.50300
C772        C  0.83366733  0.31822156  0.11331933     0.71700
O773        O  0.82155434  0.30342058  0.11158281    -0.45100
C774        C  0.81027610  0.32529211  0.05174850     0.76500
O775        O  0.79115242  0.28654702  0.09085127    -0.57000
O776        O  0.80060137  0.33819059  0.06198124    -0.47100
O777        O  0.76911507  0.30819912  0.08166360    -0.53400
C778        C  0.77745870  0.34362392  0.11336627     0.86600
O779        O  0.82892935  0.33335473  0.10263864    -0.55300
O780        O  0.81560126  0.30986796  0.06172069    -0.58600
In781      In  0.70282179  0.82092993  0.42060468     1.36900
C782        C  0.72934755  0.79045599  0.42399894     0.79100
O783        O  0.72066334  0.82786084  0.39260810    -0.59400
O784        O  0.71801744  0.85122984  0.41431691    -0.50300
C785        C  0.66745209  0.81943409  0.40014723     0.71700
O786        O  0.67796814  0.80400603  0.40426220    -0.45100
C787        C  0.69364365  0.82504785  0.45976648     0.76500
O788        O  0.71330446  0.78930371  0.41338431    -0.57000
O789        O  0.70297436  0.83852531  0.44983835    -0.47100
O790        O  0.73167050  0.80722745  0.43288458    -0.53400
C791        C  0.72523547  0.84578419  0.39746996     0.86600
O792        O  0.67461469  0.83569252  0.40739898    -0.55300
O793        O  0.68774828  0.81021188  0.44919162    -0.58600
In794      In  0.79993717  0.91882526  0.32181308     1.36900
C795        C  0.77620387  0.89642852  0.34601578     0.79100
O796        O  0.76968452  0.92815277  0.30897041    -0.59400
O797        O  0.79132647  0.91624412  0.28857609    -0.50300
C798        C  0.81045847  0.95773422  0.32729085     0.71700
O799        O  0.80195067  0.94724502  0.34082683    -0.45100
C800        C  0.83380799  0.89594604  0.32205281     0.76500
O801        O  0.78287209  0.91371155  0.35104934    -0.57000
O802        O  0.82344088  0.89952349  0.30631986    -0.47100
O803        O  0.78182036  0.89076300  0.32866461    -0.53400
C804        C  0.77355154  0.92318656  0.29096211     0.86600
O805        O  0.81487813  0.94782635  0.31160748    -0.55300
O806        O  0.82733212  0.90491788  0.33760702    -0.58600
In807      In  0.82049907  0.70015001  0.42174157     1.36900
C808        C  0.84417522  0.72297943  0.39838504     0.79100
O809        O  0.83579585  0.67219017  0.40917337    -0.59400
O810        O  0.80421131  0.67593096  0.40386699    -0.50300
C811        C  0.82694984  0.69088676  0.46063319     0.71700
O812        O  0.84011249  0.69979978  0.44993159    -0.45100
C813        C  0.79027269  0.72691680  0.42574681     0.76500
O814        O  0.85038636  0.71526539  0.41478642    -0.57000
O815        O  0.78756224  0.70952358  0.41815851    -0.47100
O816        O  0.82605622  0.71837563  0.39368990    -0.53400
C817        C  0.81987257  0.66532660  0.40078795     0.86600
O818        O  0.81091045  0.68606941  0.45110510    -0.55300
O819        O  0.80829916  0.73019420  0.43174178    -0.58600
In820      In  0.91722128  0.79870717  0.32577578     1.36900
C821        C  0.92052661  0.77188747  0.29568522     0.79100
O822        O  0.94676213  0.81354547  0.31678660    -0.59400
O823        O  0.94618402  0.79727503  0.34435368    -0.50300
C824        C  0.89556663  0.83309450  0.32406766     0.71700
O825        O  0.89809104  0.82149496  0.30913818    -0.45100
C826        C  0.89363046  0.77677702  0.34998094     0.76500
O827        O  0.91385286  0.78961003  0.29298682    -0.57000
O828        O  0.91040374  0.78428131  0.35585446    -0.47100
O829        O  0.92610622  0.76830559  0.31362111    -0.53400
C830        C  0.95680297  0.80700613  0.33176521     0.86600
O831        O  0.90506092  0.82758164  0.33981853    -0.55300
O832        O  0.88870907  0.78114397  0.33204122    -0.58600
In833      In  0.82082986  0.58271811  0.30409991     1.36900
C834        C  0.79054337  0.57928718  0.27736589     0.79100
O835        O  0.82696818  0.61023060  0.28539249    -0.59400
O836        O  0.85152573  0.59001637  0.29040669    -0.50300
C837        C  0.82025656  0.60349692  0.33885303     0.71700
O838        O  0.80485936  0.60112933  0.32755591    -0.45100
C839        C  0.82408122  0.54336766  0.31258827     0.76500
O840        O  0.78835665  0.58786690  0.29432397    -0.57000
O841        O  0.83799350  0.55328105  0.30381486    -0.47100
O842        O  0.80817376  0.57228606  0.27436818    -0.53400
C843        C  0.84541579  0.60613391  0.28203004     0.86600
O844        O  0.83598415  0.59438869  0.33275018    -0.55300
O845        O  0.80917973  0.55399509  0.31817411    -0.58600
In846      In  0.91797922  0.67996067  0.20610570     1.36900
C847        C  0.92088536  0.71013858  0.23306586     0.79100
O848        O  0.88860694  0.67181853  0.22114471    -0.59400
O849        O  0.91373035  0.65203622  0.22517329    -0.50300
C850        C  0.89651093  0.67970627  0.17148718     0.71700
O851        O  0.90087141  0.69573970  0.18101318    -0.45100
C852        C  0.95670073  0.67338839  0.19579715     0.76500
O853        O  0.91305879  0.71251759  0.21570993    -0.57000
O854        O  0.94541872  0.65986600  0.20332259    -0.47100
O855        O  0.92776590  0.69260282  0.23614290    -0.53400
C856        C  0.89536133  0.65590496  0.22934375     0.86600
O857        O  0.90396454  0.66389700  0.17926472    -0.55300
O858        O  0.94774182  0.68996761  0.19253987    -0.58600
In859      In  0.58547944  0.81734738  0.30242993     1.36900
C860        C  0.58386194  0.78678870  0.27599846     0.79100
O861        O  0.55597972  0.80490389  0.31455840    -0.59400
O862        O  0.55656168  0.83550582  0.30509056    -0.50300
C863        C  0.60534154  0.81707018  0.33793767     0.71700
O864        O  0.60334032  0.80160173  0.32690074    -0.45100
C865        C  0.60756464  0.84323645  0.27998531     0.76500
O866        O  0.59299750  0.78539266  0.29281414    -0.57000
O867        O  0.58912954  0.84632566  0.28446047    -0.47100
O868        O  0.57540357  0.80367325  0.27306213    -0.53400
C869        C  0.54599629  0.82097822  0.31179599     0.86600
O870        O  0.59631109  0.83253727  0.33118017    -0.55300
O871        O  0.61470481  0.82711927  0.28739273    -0.58600
In872      In  0.67894857  0.91842270  0.20313762     1.36900
C873        C  0.71032695  0.92271222  0.22894214     0.79100
O874        O  0.68747150  0.94717952  0.18666055    -0.59400
O875        O  0.66089033  0.94744558  0.20462579    -0.50300
C876        C  0.67974611  0.89633364  0.16904988     0.71700
O877        O  0.69545159  0.90064580  0.17931486    -0.45100
C878        C  0.65529151  0.89497130  0.22657939     0.76500
O879        O  0.71204126  0.91381581  0.21210316    -0.57000
O880        O  0.64848786  0.91040523  0.21746893    -0.47100
O881        O  0.69276932  0.92980212  0.23208556    -0.53400
C882        C  0.67298966  0.95751189  0.19370178     0.86600
O883        O  0.66361428  0.90432755  0.17566980    -0.55300
O884        O  0.67383459  0.89144523  0.22308184    -0.58600
In885      In  0.70233166  0.58082905  0.18360418     1.36900
C886        C  0.72927091  0.57881611  0.21394796     0.79100
O887        O  0.68798560  0.55201692  0.19483672    -0.59400
O888        O  0.70093637  0.55186011  0.16556318    -0.50300
C889        C  0.66682152  0.60030238  0.18492074     0.71700
O890        O  0.67822277  0.59780223  0.20014680    -0.45100
C891        C  0.72321285  0.60476738  0.15841807     0.76500
O892        O  0.71221734  0.58744390  0.21551132    -0.57000
O893        O  0.71952120  0.58636685  0.15455681    -0.47100
O894        O  0.73244414  0.57107527  0.19679877    -0.53400
C895        C  0.69223284  0.54178196  0.17931518     0.86600
O896        O  0.67319632  0.59187126  0.16899018    -0.55300
O897        O  0.71594739  0.61082215  0.17496657    -0.58600
In898      In  0.79908778  0.68078840  0.08795686     1.36900
C899        C  0.77446434  0.65680757  0.10939689     0.79100
O900        O  0.82482376  0.66410372  0.10344256    -0.59400
O901        O  0.82591299  0.69607306  0.10319632    -0.50300
C902        C  0.80796850  0.67557884  0.04878089     0.71700
O903        O  0.79878037  0.66240795  0.05919736    -0.45100
C904        C  0.77362957  0.71199558  0.08546885     0.76500
O905        O  0.78352946  0.65093193  0.09362995    -0.57000
O906        O  0.78932882  0.71230671  0.09667631    -0.47100
O907        O  0.77829073  0.67490140  0.11429440    -0.53400
C908        C  0.83409138  0.67986839  0.10920330     0.86600
O909        O  0.81358896  0.69090976  0.05879478    -0.55300
O910        O  0.77141117  0.69589756  0.07539448    -0.58600
In911      In  0.58310176  0.69611214  0.18515057     1.36900
C912        C  0.58271628  0.72359087  0.21490346     0.79100
O913        O  0.61256339  0.70941581  0.17451692    -0.59400
O914        O  0.58596212  0.71578722  0.15733111    -0.50300
C915        C  0.60419129  0.66149924  0.18596308     0.71700
O916        O  0.60113873  0.67220561  0.20146753    -0.45100
C917        C  0.54367221  0.68622361  0.18058788     0.76500
O918        O  0.58913047  0.70577475  0.21757780    -0.57000
O919        O  0.55453475  0.69249435  0.16616019    -0.47100
O920        O  0.57614485  0.72690516  0.19726827    -0.53400
C921        C  0.60489497  0.71871913  0.15963671     0.86600
O922        O  0.59558971  0.66810778  0.17013896    -0.55300
O923        O  0.55337953  0.68390625  0.19695258    -0.58600
In924      In  0.67794956  0.79712609  0.08830772     1.36900
C925        C  0.71010020  0.77260935  0.08567433     0.79100
O926        O  0.67263141  0.77513358  0.11345428    -0.59400
O927        O  0.64687594  0.78419753  0.09633726    -0.50300
C928        C  0.67898848  0.83170840  0.10965792     0.71700
O929        O  0.69479702  0.82260555  0.10385774    -0.45100
C930        C  0.67146453  0.80509803  0.04895587     0.76500
O931        O  0.71011298  0.78824062  0.09669526    -0.57000
O932        O  0.66007939  0.79373329  0.05932229    -0.47100
O933        O  0.69376243  0.76988109  0.07583477    -0.53400
C934        C  0.65369317  0.77330574  0.11055355     0.86600
O935        O  0.66256571  0.82349708  0.10378949    -0.55300
O936        O  0.68559058  0.81338110  0.05908433    -0.58600
In937      In  0.08498704  0.31955528  0.20508692     1.36900
C938        C  0.08228003  0.28991564  0.23254588     0.79100
O939        O  0.11437452  0.32788331  0.22069286    -0.59400
O940        O  0.09010765  0.34893867  0.22189691    -0.50300
C941        C  0.10560737  0.31804216  0.17009631     0.71700
O942        O  0.10176489  0.30256422  0.18063205    -0.45100
C943        C  0.04553693  0.32474077  0.19574857     0.76500
O944        O  0.09018578  0.28745517  0.21532261    -0.57000
O945        O  0.05690155  0.33891507  0.20196659    -0.47100
O946        O  0.07559946  0.30755425  0.23553364    -0.53400
C947        C  0.10819628  0.34478718  0.22709297     0.86600
O948        O  0.09803062  0.33413265  0.17704411    -0.55300
O949        O  0.05473998  0.30821509  0.19311493    -0.58600
In950      In  0.18201729  0.41685799  0.30458732     1.36900
C951        C  0.21225017  0.42178749  0.27791041     0.79100
O952        O  0.17544901  0.38907684  0.28621751    -0.59400
O953        O  0.15281515  0.41195862  0.28696232    -0.50300
C954        C  0.18069991  0.39467499  0.33872252     0.71700
O955        O  0.19706003  0.39839281  0.32935058    -0.45100
C956        C  0.17695344  0.45517585  0.31619543     0.76500
O957        O  0.21464299  0.41269238  0.29461870    -0.57000
O958        O  0.16316576  0.44492142  0.30752698    -0.47100
O959        O  0.19453659  0.42875725  0.27527008    -0.53400
C960        C  0.15816200  0.39492304  0.28008316     0.86600
O961        O  0.16516620  0.40288157  0.33094507    -0.55300
O962        O  0.19306162  0.44539122  0.31985711    -0.58600
In963      In  0.20115960  0.31766809  0.08620811     1.36900
C964        C  0.22845028  0.28792298  0.08413942     0.79100
O965        O  0.18721697  0.30493574  0.05777994    -0.59400
O966        O  0.19714865  0.33546854  0.05738077    -0.50300
C967        C  0.16655552  0.31690296  0.10723207     0.71700
O968        O  0.17843886  0.30194884  0.10608005    -0.45100
C969        C  0.22303112  0.34375178  0.10845993     0.76500
O970        O  0.21074101  0.28540361  0.09115637    -0.57000
O971        O  0.22021840  0.34613431  0.08966582    -0.47100
O972        O  0.23202342  0.30567137  0.07802618    -0.53400
C973        C  0.18964779  0.32084051  0.04748331     0.86600
O974        O  0.17199889  0.33204050  0.09682150    -0.55300
O975        O  0.21430341  0.32831504  0.11567359    -0.58600
In976      In  0.29860870  0.41703844  0.18311110     1.36900
C977        C  0.27279370  0.42139001  0.21402257     0.79100
O978        O  0.31515679  0.44538669  0.19271224    -0.59400
O979        O  0.29867744  0.44608344  0.16513230    -0.50300
C980        C  0.33240163  0.39429487  0.18431125     0.71700
O981        O  0.32227649  0.39886104  0.19981843    -0.45100
C982        C  0.27496695  0.39468215  0.15868550     0.76500
O983        O  0.28935766  0.41174854  0.21544053    -0.57000
O984        O  0.28483250  0.40991182  0.15242449    -0.47100
O985        O  0.26965153  0.42902728  0.19675864    -0.53400
C986        C  0.30904730  0.45590817  0.17796013     0.86600
O987        O  0.32577088  0.40228853  0.16822859    -0.55300
O988        O  0.27755758  0.39093132  0.17723373    -0.58600
In989      In  0.31943787  0.19791397  0.08652129     1.36900
C990        C  0.28976470  0.22503638  0.08360886     0.79100
O991        O  0.32738769  0.21351154  0.11538928    -0.59400
O992        O  0.34860184  0.21570327  0.09133898    -0.50300
C993        C  0.31887602  0.16363735  0.10749081     0.71700
O994        O  0.30307405  0.17394751  0.10399700    -0.45100
C995        C  0.32329729  0.18667538  0.04810730     0.76500
O996        O  0.28759889  0.20837815  0.09276462    -0.57000
O997        O  0.33762983  0.19476812  0.05811618    -0.47100
O998        O  0.30699350  0.22741466  0.07549406    -0.53400
C999        C  0.34408660  0.22072600  0.10923100     0.86600
O1000       O  0.33489330  0.17048442  0.09936711    -0.55300
O1001       O  0.30734368  0.18336481  0.05821329    -0.58600
In1002     In  0.41525331  0.29656974  0.18513468     1.36900
C1003       C  0.41933600  0.27049951  0.21578239     0.79100
O1004       O  0.38784421  0.27758249  0.17822125    -0.59400
O1005       O  0.40865444  0.28311339  0.15435745    -0.50300
C1006       C  0.39279207  0.33036785  0.18552182     0.71700
O1007       O  0.39509078  0.31912527  0.20080268    -0.45100
C1008       C  0.45470723  0.30591015  0.18022784     0.76500
O1009       O  0.41289378  0.28835020  0.21816084    -0.57000
O1010       O  0.44465764  0.29531955  0.16777994    -0.47100
O1011       O  0.42380372  0.26620504  0.19773665    -0.53400
C1012       C  0.39241624  0.27441891  0.15996173     0.86600
O1013       O  0.40267591  0.32466204  0.17021126    -0.55300
O1014       O  0.44421238  0.31261278  0.19469682    -0.58600
In1015     In  0.31999060  0.08291372  0.20521190     1.36900
C1016       C  0.29007511  0.08024357  0.23230618     0.79100
O1017       O  0.30890534  0.05414693  0.19062031    -0.59400
O1018       O  0.33809652  0.05404556  0.20445847    -0.50300
C1019       C  0.31905260  0.10347751  0.17052905     0.71700
O1020       O  0.30323560  0.09954973  0.18062471    -0.45100
C1021       C  0.34544059  0.10623630  0.22663584     0.76500
O1022       O  0.28779018  0.08883204  0.21535404    -0.57000
O1023       O  0.35088338  0.08950169  0.21914223    -0.47100
O1024       O  0.30757464  0.07275328  0.23507154    -0.53400
C1025       C  0.32442523  0.04395638  0.19543115     0.86600
O1026       O  0.33521441  0.09616377  0.17788773    -0.55300
O1027       O  0.32714316  0.11087866  0.22290153    -0.58600
In1028     In  0.41634400  0.17948404  0.30538340     1.36900
C1029       C  0.42062447  0.20978516  0.27910708     0.79100
O1030       O  0.44536449  0.19103323  0.31960463    -0.59400
O1031       O  0.44470618  0.16088715  0.30867364    -0.50300
C1032       C  0.39379241  0.17929245  0.33918747     0.71700
O1033       O  0.39730739  0.19501179  0.32890336    -0.45100
C1034       C  0.39502156  0.15584978  0.28021508     0.76500
O1035       O  0.41148173  0.21183842  0.29578471    -0.57000
O1036       O  0.41210498  0.15062288  0.28743375    -0.47100
O1037       O  0.42802231  0.19240297  0.27636296    -0.53400
C1038       C  0.45527492  0.17506688  0.31616052     0.86600
O1039       O  0.40243743  0.16362281  0.33247673    -0.55300
O1040       O  0.38877606  0.17273577  0.28655046    -0.58600
In1041     In  0.20066996  0.08104154  0.32453534     1.36900
C1042       C  0.22345249  0.10332600  0.35007031     0.79100
O1043       O  0.23058033  0.07121166  0.31152884    -0.59400
O1044       O  0.21100555  0.08863364  0.29285058    -0.50300
C1045       C  0.19082460  0.04175742  0.32711777     0.71700
O1046       O  0.19797185  0.05162905  0.34193762    -0.45100
C1047       C  0.16507322  0.10104851  0.32361505     0.76500
O1048       O  0.21827726  0.08527863  0.35397324    -0.57000
O1049       O  0.17603056  0.09822430  0.30824076    -0.47100
O1050       O  0.21642447  0.10985451  0.33350880    -0.53400
C1051       C  0.22790107  0.07963620  0.29458398     0.86600
O1052       O  0.18780291  0.05233402  0.31150543    -0.55300
O1053       O  0.17194120  0.09279479  0.33949952    -0.58600
In1054     In  0.29803580  0.17903625  0.42415530     1.36900
C1055       C  0.27278119  0.21064712  0.42773996     0.79100
O1056       O  0.27748559  0.17247131  0.39775108    -0.59400
O1057       O  0.28447572  0.14798120  0.41714035    -0.50300
C1058       C  0.33252151  0.17936603  0.40229968     0.71700
O1059       O  0.32176880  0.19487502  0.40528423    -0.45100
C1060       C  0.30695326  0.17424523  0.46346744     0.76500
O1061       O  0.28919040  0.21152734  0.41780673    -0.57000
O1062       O  0.29572387  0.16220839  0.45357368    -0.47100
O1063       O  0.26961093  0.19368171  0.43597566    -0.53400
C1064       C  0.27502975  0.15390948  0.40152379     0.86600
O1065       O  0.32620606  0.16380185  0.41149262    -0.55300
O1066       O  0.31472753  0.18816225  0.45285168    -0.58600
In1067     In  0.08389417  0.19932989  0.32370307     1.36900
C1068       C  0.08157376  0.22705645  0.29415928     0.79100
O1069       O  0.05450724  0.18568619  0.31182652    -0.59400
O1070       O  0.05479501  0.19762650  0.34153413    -0.50300
C1071       C  0.10386574  0.16383244  0.32278272     0.71700
O1072       O  0.10083895  0.17457440  0.30725214    -0.45100
C1073       C  0.10689776  0.22094022  0.34974903     0.76500
O1074       O  0.09139657  0.21072498  0.29236585    -0.57000
O1075       O  0.08926126  0.21452639  0.35411395    -0.47100
O1076       O  0.07270522  0.22893818  0.31096211    -0.53400
C1077       C  0.04437632  0.18958259  0.32754634     0.86600
O1078       O  0.09589922  0.17091088  0.33861387    -0.55300
O1079       O  0.11266880  0.21595265  0.33225887    -0.58600
In1080     In  0.17941642  0.29888397  0.42388050     1.36900
C1081       C  0.21107193  0.27354692  0.42756860     0.79100
O1082       O  0.18955840  0.31342658  0.45329126    -0.59400
O1083       O  0.15997074  0.30064116  0.45210655    -0.50300
C1084       C  0.17883161  0.33332417  0.40181087     0.71700
O1085       O  0.19500070  0.32555703  0.40872318    -0.45100
C1086       C  0.15622263  0.27335587  0.40176239     0.76500
O1087       O  0.21150418  0.28887389  0.41610098    -0.57000
O1088       O  0.15046719  0.28038159  0.41860215    -0.47100
O1089       O  0.19469136  0.27169105  0.43734835    -0.53400
C1090       C  0.17357736  0.30894505  0.46292797     0.86600
O1091       O  0.16285905  0.32405702  0.40718378    -0.55300
O1092       O  0.17358804  0.27963095  0.39641271    -0.58600
In1093     In  0.41834360  0.81901457  0.30484141     1.36900
C1094       C  0.42276920  0.78826900  0.27931764     0.79100
O1095       O  0.39235290  0.82593153  0.28404987    -0.59400
O1096       O  0.41166908  0.85036092  0.29223797    -0.50300
C1097       C  0.39496625  0.81679005  0.33780395     0.71700
O1098       O  0.39635109  0.80275541  0.32498839    -0.45100
C1099       C  0.45784288  0.82275261  0.31432009     0.76500
O1100       O  0.41496713  0.78619675  0.29663729    -0.57000
O1101       O  0.44814307  0.83599273  0.30445750    -0.47100
O1102       O  0.42851446  0.80608929  0.27530124    -0.53400
C1103       C  0.39634276  0.84450952  0.28208289     0.86600
O1104       O  0.40634426  0.83184473  0.33418094    -0.55300
O1105       O  0.44687965  0.80836594  0.32066964    -0.58600
In1106     In  0.32236742  0.91775975  0.20598097     1.36900
C1107       C  0.29066897  0.91918227  0.23090504     0.79100
O1108       O  0.33010186  0.88954739  0.22288791    -0.59400
O1109       O  0.35205459  0.91312224  0.22335746    -0.50300
C1110       C  0.32184198  0.89779476  0.17105088     0.71700
O1111       O  0.30591526  0.90286382  0.18033726    -0.45100
C1112       C  0.32583713  0.95670616  0.19593939     0.76500
O1113       O  0.29156070  0.90709417  0.21616312    -0.57000
O1114       O  0.33987770  0.94713561  0.20493862    -0.47100
O1115       O  0.30613884  0.93048050  0.23286848    -0.53400
C1116       C  0.34730174  0.89547670  0.22916635     0.86600
O1117       O  0.33818839  0.90414737  0.17907913    -0.55300
O1118       O  0.31062562  0.94594373  0.19114506    -0.58600
In1119     In  0.41723681  0.70076811  0.18715151     1.36900
C1120       C  0.42289864  0.72577804  0.21819759     0.79100
O1121       O  0.44515417  0.68301768  0.19584393    -0.59400
O1122       O  0.44638303  0.70083007  0.16921942    -0.50300
C1123       C  0.39443020  0.66728880  0.18708272     0.71700
O1124       O  0.39835709  0.67726239  0.20292480    -0.45100
C1125       C  0.39424218  0.72472880  0.16385129     0.76500
O1126       O  0.41269960  0.70956752  0.21965281    -0.57000
O1127       O  0.40995815  0.71581595  0.15740679    -0.47100
O1128       O  0.43062159  0.72871233  0.20097620    -0.53400
C1129       C  0.45585845  0.68938846  0.18132639     0.86600
O1130       O  0.40289694  0.67408747  0.17134470    -0.55300
O1131       O  0.39026811  0.72108640  0.18214899    -0.58600
In1132     In  0.32109797  0.80055540  0.09000243     1.36900
C1133       C  0.29072585  0.77391846  0.08650914     0.79100
O1134       O  0.30993912  0.81468515  0.06122453    -0.59400
O1135       O  0.33967944  0.80229154  0.06129716    -0.50300
C1136       C  0.32074479  0.83515667  0.11050192     0.71700
O1137       O  0.30538967  0.82367178  0.10891140    -0.45100
C1138       C  0.34517051  0.77839288  0.11393497     0.76500
O1139       O  0.28803475  0.79168883  0.09301881    -0.57000
O1140       O  0.35006927  0.78339814  0.09612190    -0.47100
O1141       O  0.30882820  0.77017473  0.08133273    -0.53400
C1142       C  0.32569655  0.81069446  0.05111876     0.86600
O1143       O  0.33621643  0.82921753  0.10087564    -0.55300
O1144       O  0.32822274  0.78534242  0.11958850    -0.58600
In1145     In  0.20075748  0.68200156  0.09032214     1.36900
C1146       C  0.22781442  0.71205386  0.08708197     0.79100
O1147       O  0.21729075  0.67411813  0.11907220    -0.59400
O1148       O  0.21722547  0.65240396  0.09546753    -0.50300
C1149       C  0.16660655  0.68210983  0.11222517     0.71700
O1150       O  0.17822010  0.69731209  0.11068299    -0.45100
C1151       C  0.19127253  0.67759188  0.05107614     0.76500
O1152       O  0.20953974  0.71510421  0.09224593    -0.57000
O1153       O  0.19978940  0.66391965  0.06142107    -0.47100
O1154       O  0.23182975  0.69379340  0.08331282    -0.53400
C1155       C  0.22332573  0.65701483  0.11307482     0.86600
O1156       O  0.17195118  0.66715892  0.10160284    -0.55300
O1157       O  0.18648076  0.69303385  0.06121093    -0.58600
In1158     In  0.29873422  0.58219064  0.18613368     1.36900
C1159       C  0.27312700  0.57700892  0.21695009     0.79100
O1160       O  0.27916287  0.60946367  0.18063346    -0.59400
O1161       O  0.28524536  0.59038237  0.15562504    -0.50300
C1162       C  0.33280464  0.60446876  0.18701790     0.71700
O1163       O  0.32150433  0.60209787  0.20224640    -0.45100
C1164       C  0.30815561  0.54325276  0.18011225     0.76500
O1165       O  0.29088793  0.58422656  0.21920041    -0.57000
O1166       O  0.29701843  0.55326170  0.16813570    -0.47100
O1167       O  0.26877432  0.57215001  0.19895637    -0.53400
C1168       C  0.27632402  0.60604348  0.16204732     0.86600
O1169       O  0.32720743  0.59453450  0.17162777    -0.55300
O1170       O  0.31529188  0.55354088  0.19462080    -0.58600
In1171     In  0.08334630  0.67562095  0.20887031     1.36900
C1172       C  0.07977838  0.70518669  0.23621255     0.79100
O1173       O  0.05497723  0.68562473  0.19276656    -0.59400
O1174       O  0.05394148  0.65768141  0.20839238    -0.50300
C1175       C  0.10545827  0.67820489  0.17503561     0.71700
O1176       O  0.10195836  0.69312326  0.18638852    -0.45100
C1177       C  0.10670521  0.65090983  0.23067586     0.76500
O1178       O  0.08704730  0.70798345  0.21876671    -0.57000
O1179       O  0.09035786  0.64489431  0.22233027    -0.47100
O1180       O  0.07373530  0.68729296  0.23939600    -0.53400
C1181       C  0.04428591  0.67068395  0.19817247     0.86600
O1182       O  0.09694923  0.66196834  0.18067257    -0.55300
O1183       O  0.11113881  0.66915316  0.22709765    -0.58600
In1184     In  0.18195049  0.58027390  0.30683694     1.36900
C1185       C  0.21226082  0.57564362  0.28028093     0.79100
O1186       O  0.19108696  0.55242313  0.32426774    -0.59400
O1187       O  0.16346922  0.55173549  0.30752037    -0.50300
C1188       C  0.18267898  0.60324952  0.34014809     0.71700
O1189       O  0.19840031  0.59904368  0.33005476    -0.45100
C1190       C  0.15722275  0.60221904  0.28369853     0.76500
O1191       O  0.21468473  0.58431046  0.29716334    -0.57000
O1192       O  0.15189563  0.58534135  0.29101492    -0.47100
O1193       O  0.19447989  0.56884808  0.27740283    -0.53400
C1194       C  0.17602831  0.54203546  0.31826089     0.86600
O1195       O  0.16657237  0.59489676  0.33361323    -0.55300
O1196       O  0.17498582  0.60785708  0.28863208    -0.58600
In1197     In  0.29838643  0.82097782  0.42131580     1.36900
C1198       C  0.27710897  0.84578673  0.39718013     0.79100
O1199       O  0.32833748  0.83301594  0.40967337    -0.59400
O1200       O  0.31864286  0.80387458  0.40021855    -0.50300
C1201       C  0.30731945  0.82835535  0.46015219     0.71700
O1202       O  0.29471173  0.83868836  0.45005371    -0.45100
C1203       C  0.27377601  0.78938995  0.42747475     0.76500
O1204       O  0.28795905  0.85228040  0.41165278    -0.57000
O1205       O  0.29132482  0.78762023  0.41988083    -0.47100
O1206       O  0.27726454  0.82680144  0.39530900    -0.53400
C1207       C  0.33186775  0.81771018  0.39878507     0.86600
O1208       O  0.31621945  0.81487024  0.44996326    -0.55300
O1209       O  0.26909489  0.80732141  0.43210606    -0.58600
In1210     In  0.20045908  0.91583369  0.32123942     1.36900
C1211       C  0.22629515  0.91846231  0.29036080     0.79100
O1212       O  0.18617413  0.94432965  0.30948895    -0.59400
O1213       O  0.19674675  0.94406743  0.33987872    -0.50300
C1214       C  0.16587936  0.89431444  0.32230834     0.71700
O1215       O  0.17461797  0.89916500  0.30601162    -0.45100
C1216       C  0.22553888  0.89505724  0.34541572     0.76500
O1217       O  0.21145279  0.90619476  0.29042409    -0.57000
O1218       O  0.22049417  0.91312461  0.34913744    -0.47100
O1219       O  0.22746969  0.92950899  0.30588721    -0.53400
C1220       C  0.18925932  0.95432411  0.32551964     0.86600
O1221       O  0.17428557  0.90154610  0.33796565    -0.55300
O1222       O  0.21749463  0.88787938  0.32959187    -0.58600
In1223     In  0.18289797  0.69915469  0.42454091     1.36900
C1224       C  0.21365431  0.72520043  0.42951579     0.79100
O1225       O  0.17691856  0.71906235  0.39783787    -0.59400
O1226       O  0.15285181  0.71474083  0.41871769    -0.50300
C1227       C  0.18322605  0.66560179  0.40189283     0.71700
O1228       O  0.19916046  0.67530412  0.40664756    -0.45100
C1229       C  0.17728946  0.68777898  0.46281952     0.76500
O1230       O  0.21530391  0.70918592  0.41919917    -0.57000
O1231       O  0.16412411  0.69749079  0.45280339    -0.47100
O1232       O  0.19642197  0.72743274  0.43763995    -0.53400
C1233       C  0.15881405  0.72323448  0.40264854     0.86600
O1234       O  0.16712929  0.67266495  0.40951046    -0.55300
O1235       O  0.19284004  0.68290455  0.45277123    -0.58600
In1236     In  0.08433000  0.79566723  0.32721260     1.36900
C1237       C  0.08104929  0.76788427  0.29786758     0.79100
O1238       O  0.11308768  0.77937862  0.33481806    -0.59400
O1239       O  0.09067650  0.78155371  0.35774079    -0.50300
C1240       C  0.10523443  0.83059029  0.32539933     0.71700
O1241       O  0.10341360  0.81861107  0.31062615    -0.45100
C1242       C  0.04494149  0.80471594  0.33195873     0.76500
O1243       O  0.08752161  0.78565044  0.29469129    -0.57000
O1244       O  0.05534826  0.79592200  0.34543885    -0.47100
O1245       O  0.07590870  0.76463408  0.31595785    -0.53400
C1246       C  0.10795645  0.77487990  0.35264366     0.86600
O1247       O  0.09570934  0.82501166  0.34101813    -0.55300
O1248       O  0.05503067  0.80960862  0.31648153    -0.58600
C1249       C  0.15304548  0.74449494  0.37174834     0.25100
C1250       C  0.14582503  0.73692440  0.39034003    -0.23000
C1251       C  0.12618011  0.74255605  0.39686012     0.20000
C1252       C  0.11387559  0.75508585  0.38478852     0.25000
C1253       C  0.12107454  0.76242126  0.36607339    -0.23000
C1254       C  0.14087119  0.75710588  0.35982400     0.19900
F1255       F  0.14854955  0.76397631  0.34200401    -0.12900
F1256       F  0.17188704  0.73954401  0.36483625    -0.15300
F1257       F  0.09478999  0.75967142  0.39128904    -0.15300
F1258       F  0.11878589  0.73592375  0.41488696    -0.12900
C1259       C  0.14047628  0.87342630  0.34182195     0.25100
C1260       C  0.14807268  0.88029645  0.32307547    -0.23000
C1261       C  0.13965477  0.87220987  0.30511023     0.20000
C1262       C  0.12496975  0.85674397  0.30589302     0.25000
C1263       C  0.11831227  0.84901885  0.32463305    -0.23000
C1264       C  0.12568445  0.85803780  0.34258453     0.19900
F1265       F  0.11944097  0.85125483  0.36097991    -0.12900
F1266       F  0.14801885  0.88089313  0.35953097    -0.15300
F1267       F  0.11757065  0.84904907  0.28822458    -0.15300
F1268       F  0.14610975  0.87872583  0.28668755    -0.12900
C1269       C  0.26397350  0.75289720  0.42193095     0.25100
C1270       C  0.25951987  0.77210046  0.43010454    -0.23000
C1271       C  0.24069723  0.77496354  0.43989111     0.20000
C1272       C  0.22622788  0.75937704  0.44054287     0.25000
C1273       C  0.23011049  0.74060232  0.43119864    -0.23000
C1274       C  0.24936299  0.73734267  0.42235702     0.19900
F1275       F  0.25393831  0.71928160  0.41363692    -0.12900
F1276       F  0.28219469  0.74929606  0.41288562    -0.15300
F1277       F  0.20809506  0.76303314  0.44973779    -0.15300
F1278       F  0.23597598  0.79305426  0.44846702    -0.12900
C1279       C  0.25597685  0.85080427  0.36593808     0.25100
C1280       C  0.26495914  0.85901418  0.38354793    -0.23000
C1281       C  0.26167570  0.87962022  0.38808274     0.20000
C1282       C  0.24907571  0.89151647  0.37561839     0.25000
C1283       C  0.23955602  0.88302376  0.35837856    -0.23000
C1284       C  0.24343974  0.86260740  0.35356473     0.19900
F1285       F  0.23492423  0.85381279  0.33692321    -0.12900
F1286       F  0.25927110  0.83121699  0.36055957    -0.15300
F1287       F  0.24609636  0.91126999  0.38055889    -0.15300
F1288       F  0.27028559  0.88819599  0.40478545    -0.12900
C1289       C  0.16498942  0.62264428  0.36783765     0.25100
C1290       C  0.18307390  0.61751656  0.35756869    -0.23000
C1291       C  0.20143337  0.62723866  0.36323187     0.20000
C1292       C  0.20157442  0.64230641  0.37812649     0.25000
C1293       C  0.18336620  0.64803930  0.38781518    -0.23000
C1294       C  0.16514209  0.63770890  0.38281285     0.19900
F1295       F  0.14728269  0.64251685  0.39199834    -0.12900
F1296       F  0.14696806  0.61353068  0.36302963    -0.15300
F1297       F  0.21953383  0.65176294  0.38248641    -0.15300
F1298       F  0.21928514  0.62269905  0.35389856    -0.12900
C1299       C  0.07499463  0.71662384  0.27219174     0.25100
C1300       C  0.07901768  0.72138300  0.25179129    -0.23000
C1301       C  0.08320188  0.74168062  0.24658680     0.20000
C1302       C  0.08380181  0.75679432  0.26147842     0.25000
C1303       C  0.07989831  0.75202842  0.28190767    -0.23000
C1304       C  0.07533361  0.73176710  0.28704327     0.19900
F1305       F  0.07166342  0.72640245  0.30656567    -0.12900
F1306       F  0.07126579  0.69719471  0.27796752    -0.15300
F1307       F  0.08831844  0.77608567  0.25581741    -0.15300
F1308       F  0.08676066  0.74698280  0.22702972    -0.12900
C1309       C  0.13612474  0.64682968  0.25457389     0.25100
C1310       C  0.11953214  0.63808511  0.24402023    -0.23000
C1311       C  0.11521482  0.61733670  0.24685755     0.20000
C1312       C  0.12729393  0.60563406  0.25995125     0.25000
C1313       C  0.14396929  0.61444458  0.27030064    -0.23000
C1314       C  0.14824982  0.63513204  0.26741862     0.19900
F1315       F  0.16404698  0.64424958  0.27730722    -0.12900
F1316       F  0.14057490  0.66687711  0.25276030    -0.15300
F1317       F  0.12292512  0.58560484  0.26213757    -0.15300
F1318       F  0.09940566  0.60830289  0.23692138    -0.12900
C1319       C  0.22458805  0.56513946  0.24586559     0.25100
C1320       C  0.22856814  0.57425655  0.26479747    -0.23000
C1321       C  0.24790962  0.58305409  0.26828238     0.20000
C1322       C  0.26257236  0.58353976  0.25292281     0.25000
C1323       C  0.25833696  0.57500536  0.23379371    -0.23000
C1324       C  0.23933830  0.56539505  0.23060981     0.19900
F1325       F  0.23479341  0.55649691  0.21257242    -0.12900
F1326       F  0.20620620  0.55637074  0.24181429    -0.15300
F1327       F  0.28067230  0.59298969  0.25665470    -0.15300
F1328       F  0.25253396  0.59173444  0.28639445    -0.12900
C1329       C  0.13966559  0.66292778  0.13135152     0.25100
C1330       C  0.14896975  0.68152384  0.12626649    -0.23000
C1331       C  0.14245302  0.69927316  0.13613527     0.20000
C1332       C  0.12772223  0.69830286  0.15140800     0.25000
C1333       C  0.11914243  0.67955059  0.15719280    -0.23000
C1334       C  0.12493797  0.66195059  0.14663603     0.19900
F1335       F  0.11705304  0.64356230  0.15165912    -0.12900
F1336       F  0.14552314  0.64542996  0.12227420    -0.15300
F1337       F  0.12234153  0.71573571  0.16091065    -0.15300
F1338       F  0.15069131  0.71759913  0.13140766    -0.12900
C1339       C  0.24484573  0.65088521  0.14411713     0.25100
C1340       C  0.23683679  0.64382178  0.12553637    -0.23000
C1341       C  0.24235612  0.62431116  0.11884424     0.20000
C1342       C  0.25549545  0.61217390  0.13047184     0.25000
C1343       C  0.26327919  0.61918911  0.14913186    -0.23000
C1344       C  0.25789600  0.63873974  0.15573528     0.19900
F1345       F  0.26548420  0.64631570  0.17338302    -0.12900
F1346       F  0.24021928  0.66967818  0.15109620    -0.15300
F1347       F  0.26021295  0.59335829  0.12363193    -0.15300
F1348       F  0.23489719  0.61681051  0.10112278    -0.12900
C1349       C  0.25372933  0.76372896  0.08881385     0.25100
C1350       C  0.27428965  0.75847038  0.08555942    -0.23000
C1351       C  0.27921222  0.73801514  0.08213839     0.20000
C1352       C  0.26405192  0.72311089  0.08235402     0.25000
C1353       C  0.24352024  0.72824246  0.08593155    -0.23000
C1354       C  0.23847511  0.74876064  0.08895866     0.19900
F1355       F  0.21882772  0.75439084  0.09220697    -0.12900
F1356       F  0.24834270  0.78333959  0.09195289    -0.15300
F1357       F  0.26969468  0.70352350  0.07952539    -0.15300
F1358       F  0.29885648  0.73220512  0.07916185    -0.12900
C1359       C  0.35929201  0.62529137  0.20521549     0.25100
C1360       C  0.35039299  0.61865164  0.18691655    -0.23000
C1361       C  0.35723738  0.62709233  0.16855925     0.20000
C1362       C  0.37197579  0.64250836  0.16855753     0.25000
C1363       C  0.38039915  0.64962137  0.18690995    -0.23000
C1364       C  0.37420604  0.64054848  0.20520705     0.19900
F1365       F  0.38230864  0.64667002  0.22319129    -0.12900
F1366       F  0.35337783  0.61722010  0.22319992    -0.15300
F1367       F  0.37714410  0.65118408  0.15062070    -0.15300
F1368       F  0.34880917  0.62130027  0.15061618    -0.12900
C1369       C  0.35213501  0.76062555  0.14700600     0.25100
C1370       C  0.35792101  0.76505447  0.12692885    -0.23000
C1371       C  0.37567413  0.75601247  0.11915040     0.20000
C1372       C  0.38735114  0.74286116  0.13108212     0.25000
C1373       C  0.38163289  0.73845777  0.15114218    -0.23000
C1374       C  0.36386825  0.74751192  0.15897842     0.19900
F1375       F  0.35770489  0.74365348  0.17823293    -0.12900
F1376       F  0.33506073  0.76889925  0.15513922    -0.15300
F1377       F  0.40429821  0.73443905  0.12288027    -0.15300
F1378       F  0.38170724  0.75966211  0.09983436    -0.12900
C1379       C  0.27166814  0.93547639  0.25931908     0.25100
C1380       C  0.27315046  0.91983027  0.24493722    -0.23000
C1381       C  0.25806795  0.90453644  0.24454991     0.20000
C1382       C  0.24244291  0.90434417  0.25894098     0.25000
C1383       C  0.24151575  0.91953313  0.27389278    -0.23000
C1384       C  0.25603540  0.93533670  0.27361536     0.19900
F1385       F  0.25531100  0.95064592  0.28734799    -0.12900
F1386       F  0.28543331  0.95093741  0.25969918    -0.15300
F1387       F  0.22868370  0.88887915  0.25861075    -0.15300
F1388       F  0.25872058  0.88938309  0.23063482    -0.12900
C1389       C  0.30268318  0.87568858  0.14662015     0.25100
C1390       C  0.32131725  0.88430654  0.15314003    -0.23000
C1391       C  0.33954628  0.87817351  0.14376556     0.20000
C1392       C  0.33927637  0.86291698  0.12905115     0.25000
C1393       C  0.32078004  0.85342101  0.12349782    -0.23000
C1394       C  0.30243016  0.86041512  0.13198424     0.19900
F1395       F  0.28419773  0.85199075  0.12669197    -0.12900
F1396       F  0.28468714  0.88124276  0.15510760    -0.15300
F1397       F  0.35730181  0.85670725  0.12111959    -0.15300
F1398       F  0.35781274  0.88621348  0.14948783    -0.12900
C1399       C  0.41456588  0.75277902  0.26816322     0.25100
C1400       C  0.42452060  0.77141206  0.26466705    -0.23000
C1401       C  0.43543028  0.77411378  0.24654244     0.20000
C1402       C  0.43579776  0.75882129  0.23193935     0.25000
C1403       C  0.42483846  0.74065512  0.23488499    -0.23000
C1404       C  0.41458467  0.73761383  0.25335462     0.19900
F1405       F  0.40399992  0.72023122  0.25691151    -0.12900
F1406       F  0.40413015  0.74944080  0.28559329    -0.15300
F1407       F  0.44649821  0.76211518  0.21466175    -0.15300
F1408       F  0.44548683  0.79173674  0.24267744    -0.12900
C1409       C  0.37925044  0.83197271  0.36898208     0.25100
C1410       C  0.38044721  0.81592272  0.35498660    -0.23000
C1411       C  0.36657365  0.79961607  0.35671212     0.20000
C1412       C  0.35119609  0.79991429  0.37132984     0.25000
C1413       C  0.34947890  0.81638242  0.38479872    -0.23000
C1414       C  0.36399890  0.83215236  0.38377895     0.19900
F1415       F  0.36315525  0.84810412  0.39674205    -0.12900
F1416       F  0.39249829  0.84783285  0.36807385    -0.15300
F1417       F  0.33752997  0.78436044  0.37170606    -0.15300
F1418       F  0.36733345  0.78361013  0.34378807    -0.12900
C1419       C  0.36601254  0.85042552  0.25964562     0.25100
C1420       C  0.38403247  0.85792919  0.26870952    -0.23000
C1421       C  0.39017206  0.87797902  0.26439652     0.20000
C1422       C  0.37852174  0.89017901  0.25128108     0.25000
C1423       C  0.36038259  0.88264211  0.24241274    -0.23000
C1424       C  0.35438405  0.86257219  0.24672336     0.19900
F1425       F  0.33716157  0.85449447  0.23840955    -0.12900
F1426       F  0.35939638  0.83123930  0.26334827    -0.15300
F1427       F  0.38496753  0.90937897  0.24739835    -0.15300
F1428       F  0.40750143  0.88578622  0.27273724    -0.12900
C1429       C  0.11266169  0.23934378  0.38296080     0.25100
C1430       C  0.11972445  0.23353010  0.36366561    -0.23000
C1431       C  0.13917479  0.24027908  0.35750474     0.20000
C1432       C  0.15103144  0.25282956  0.37001791     0.25000
C1433       C  0.14378715  0.25915597  0.38907106    -0.23000
C1434       C  0.12456992  0.25196517  0.39553191     0.19900
F1435       F  0.11718920  0.25717341  0.41399694    -0.12900
F1436       F  0.09411422  0.23301884  0.38965392    -0.15300
F1437       F  0.16962447  0.25892743  0.36324009    -0.15300
F1438       F  0.14678641  0.23495366  0.33916184    -0.12900
C1439       C  0.24031210  0.22574558  0.44094119     0.25100
C1440       C  0.25806846  0.22771781  0.42912520    -0.23000
C1441       C  0.26100094  0.24572598  0.41797551     0.20000
C1442       C  0.24608131  0.26095253  0.41792695     0.25000
C1443       C  0.22788108  0.25849369  0.42899488    -0.23000
C1444       C  0.22540296  0.24086410  0.44080991     0.19900
F1445       F  0.20823880  0.23787820  0.45191700    -0.12900
F1446       F  0.23707664  0.20896784  0.45244301    -0.15300
F1447       F  0.24934512  0.27791716  0.40671510    -0.15300
F1448       F  0.27809328  0.24847890  0.40670924    -0.12900
C1449       C  0.18987371  0.00826073  0.34548843     0.25100
C1450       C  0.18731950  0.01949002  0.32749484    -0.23000
C1451       C  0.18294090  0.00899891  0.30937726     0.20000
C1452       C  0.18216906  0.98782028  0.30905162     0.25000
C1453       C  0.18602030  0.97654762  0.32677765    -0.23000
C1454       C  0.18920495  0.98701809  0.34513599     0.19900
F1455       F  0.19241175  0.97672771  0.36268862    -0.12900
F1456       F  0.19375463  0.01775317  0.36335987    -0.15300
F1457       F  0.17879706  0.97840225  0.29103505    -0.15300
F1458       F  0.18052995  0.01912542  0.29160670    -0.12900
C1459       C  0.13704763  0.12027651  0.34120773     0.25100
C1460       C  0.14659104  0.11414713  0.32314147    -0.23000
C1461       C  0.13963537  0.12242584  0.30467427     0.20000
C1462       C  0.12502486  0.13789150  0.30444767     0.25000
C1463       C  0.11669622  0.14521580  0.32266681    -0.23000
C1464       C  0.12222124  0.13558378  0.34096266     0.19900
F1465       F  0.11407916  0.14165299  0.35883710    -0.12900
F1466       F  0.14275483  0.11223235  0.35930490    -0.15300
F1467       F  0.11967219  0.14620185  0.28636494    -0.15300
F1468       F  0.14750926  0.11610490  0.28676228    -0.12900
C1469       C  0.24416630  0.10853610  0.38217343     0.25100
C1470       C  0.23680267  0.11590428  0.36345391    -0.23000
C1471       C  0.24256631  0.13557111  0.35735070     0.20000
C1472       C  0.25495446  0.14768903  0.36971106     0.25000
C1473       C  0.26213543  0.14051572  0.38852614    -0.23000
C1474       C  0.25670728  0.12071312  0.39458169     0.19900
F1475       F  0.26328923  0.11316753  0.41260677    -0.12900
F1476       F  0.23924232  0.08956229  0.38854021    -0.15300
F1477       F  0.26005790  0.16650681  0.36302520    -0.15300
F1478       F  0.23635621  0.14321057  0.33923834    -0.12900
C1479       C  0.35872835  0.16096638  0.38135370     0.25100
C1480       C  0.35025668  0.17932159  0.38824516    -0.23000
C1481       C  0.35772495  0.19766160  0.38015785     0.20000
C1482       C  0.37233277  0.19763052  0.36473475     0.25000
C1483       C  0.38004395  0.17926011  0.35709266    -0.23000
C1484       C  0.37347312  0.16093800  0.36597877     0.19900
F1485       F  0.38064093  0.14287079  0.35924389    -0.12900
F1486       F  0.35212003  0.14291787  0.38881232    -0.15300
F1487       F  0.37856448  0.21569335  0.35699034    -0.15300
F1488       F  0.35059731  0.21575520  0.38685817    -0.12900
C1489       C  0.27851618  0.07301109  0.26773071     0.25100
C1490       C  0.27383816  0.07939940  0.24789177    -0.23000
C1491       C  0.25370412  0.08547071  0.24337508     0.20000
C1492       C  0.23865711  0.08526980  0.25841841     0.25000
C1493       C  0.24348139  0.07921564  0.27834274    -0.23000
C1494       C  0.26357934  0.07304777  0.28277744     0.19900
F1495       F  0.26903543  0.06751442  0.30186943    -0.12900
F1496       F  0.29773566  0.06714696  0.27282132    -0.15300
F1497       F  0.21934800  0.09090654  0.25340171    -0.15300
F1498       F  0.24849651  0.09158106  0.22438983    -0.12900
C1499       C  0.34431899  0.99011520  0.19691026     0.25100
C1500       C  0.32650922  0.97890999  0.19247433    -0.23000
C1501       C  0.30874828  0.98938659  0.18647784     0.20000
C1502       C  0.30847838  0.01058324  0.18614273     0.25000
C1503       C  0.32586796  0.02179160  0.19204805    -0.23000
C1504       C  0.34400724  0.01132646  0.19668699     0.19900
F1505       F  0.36134643  0.02158189  0.20166431    -0.12900
F1506       F  0.36191422  0.98059434  0.20219366    -0.15300
F1507       F  0.29078416  0.02006310  0.18108375    -0.15300
F1508       F  0.29119276  0.97922617  0.18205240    -0.12900
C1509       C  0.37818648  0.11235268  0.24601263     0.25100
C1510       C  0.35903569  0.11928998  0.23912709    -0.23000
C1511       C  0.35256314  0.13877767  0.24486423     0.20000
C1512       C  0.36451446  0.15073167  0.25775350     0.25000
C1513       C  0.38315573  0.14343165  0.26553166    -0.23000
C1514       C  0.39011837  0.12429439  0.25912180     0.19900
F1515       F  0.40837771  0.11699703  0.26564235    -0.12900
F1516       F  0.38522922  0.09384227  0.24044603    -0.15300
F1517       F  0.35766441  0.16951019  0.26263327    -0.15300
F1518       F  0.33452588  0.14638215  0.23808992    -0.12900
C1519       C  0.41276327  0.25981472  0.25174558     0.25100
C1520       C  0.42110109  0.25563769  0.23256815    -0.23000
C1521       C  0.43053675  0.23675835  0.22936700     0.20000
C1522       C  0.43108843  0.22220722  0.24475725     0.25000
C1523       C  0.42190884  0.22602967  0.26363332    -0.23000
C1524       C  0.41300879  0.24511557  0.26704790     0.19900
F1525       F  0.40409451  0.24948389  0.28505471    -0.12900
F1526       F  0.40381457  0.27793488  0.25560254    -0.15300
F1527       F  0.44025698  0.20417877  0.24091386    -0.15300
F1528       F  0.43910023  0.23217812  0.21123788    -0.12900
C1529       C  0.33729062  0.12279017  0.14331615     0.25100
C1530       C  0.31882918  0.11643693  0.15221924    -0.23000
C1531       C  0.30027072  0.12391283  0.14441425     0.20000
C1532       C  0.30024502  0.13836988  0.12893916     0.25000
C1533       C  0.31877396  0.14580686  0.12107596    -0.23000
C1534       C  0.33726537  0.13735408  0.12793765     0.19900
F1535       F  0.35547045  0.14390388  0.12056614    -0.12900
F1536       F  0.35552677  0.11569398  0.15012197    -0.15300
F1537       F  0.28203066  0.14557746  0.12218179    -0.15300
F1538       F  0.28208520  0.11781681  0.15219875    -0.12900
C1539       C  0.35227854  0.23664752  0.14266466     0.25100
C1540       C  0.35686040  0.23427699  0.12199022    -0.23000
C1541       C  0.37309615  0.24557144  0.11368266     0.20000
C1542       C  0.38456993  0.25884238  0.12588117     0.25000
C1543       C  0.37996177  0.26112023  0.14659901    -0.23000
C1544       C  0.36355064  0.24998807  0.15474893     0.19900
F1545       F  0.35838010  0.25180884  0.17456839    -0.12900
F1546       F  0.33690633  0.22591631  0.15139076    -0.15300
F1547       F  0.40003842  0.26956919  0.11732406    -0.15300
F1548       F  0.37769008  0.24406813  0.09369214    -0.12900
C1549       C  0.32121859  0.48874316  0.19307887     0.25100
C1550       C  0.31232897  0.47816741  0.17669734    -0.23000
C1551       C  0.30447225  0.48935684  0.16024609     0.20000
C1552       C  0.30411985  0.51057726  0.16086600     0.25000
C1553       C  0.31155131  0.52109798  0.17797026    -0.23000
C1554       C  0.32069138  0.50994292  0.19378646     0.19900
F1555       F  0.32817428  0.51941674  0.21053364    -0.12900
F1556       F  0.32953904  0.47859538  0.20899895    -0.15300
F1557       F  0.29578480  0.52075645  0.14497897    -0.15300
F1558       F  0.29634203  0.47980424  0.14383893    -0.12900
C1559       C  0.35919731  0.37346081  0.16680877     0.25100
C1560       C  0.34978171  0.37985035  0.18485511    -0.23000
C1561       C  0.35597439  0.37095066  0.20329617     0.20000
C1562       C  0.37039419  0.35533580  0.20356470     0.25000
C1563       C  0.37907537  0.34826992  0.18541830    -0.23000
C1564       C  0.37359235  0.35779104  0.16707477     0.19900
F1565       F  0.38146079  0.35138440  0.14919472    -0.12900
F1566       F  0.35399435  0.38185330  0.14872059    -0.15300
F1567       F  0.37549637  0.34686021  0.22164420    -0.15300
F1568       F  0.34768961  0.37693241  0.22113896    -0.12900
C1569       C  0.26246765  0.27454118  0.07319277     0.25100
C1570       C  0.24381569  0.27154455  0.08333129    -0.23000
C1571       C  0.24016645  0.25285630  0.09299604     0.20000
C1572       C  0.25492800  0.23761638  0.09277009     0.25000
C1573       C  0.27369179  0.24072147  0.08289395    -0.23000
C1574       C  0.27723282  0.25930379  0.07296888     0.19900
F1575       F  0.29509064  0.26291375  0.06317718    -0.12900
F1576       F  0.26653663  0.29225160  0.06347872    -0.15300
F1577       F  0.25087536  0.21991745  0.10250535    -0.15300
F1578       F  0.22245173  0.24937616  0.10306216    -0.12900
C1579       C  0.24780698  0.36816604  0.15445028     0.25100
C1580       C  0.26136405  0.38220156  0.14561626    -0.23000
C1581       C  0.26176743  0.38398351  0.12434971     0.20000
C1582       C  0.24904632  0.37180858  0.11221032     0.25000
C1583       C  0.23576337  0.35752219  0.12109696    -0.23000
C1584       C  0.23525367  0.35594310  0.14236358     0.19900
F1585       F  0.22253829  0.34254575  0.15161229    -0.12900
F1586       F  0.24651971  0.36627688  0.17490156    -0.15300
F1587       F  0.25017516  0.37365357  0.09175081    -0.15300
F1588       F  0.27480611  0.39715435  0.11522775    -0.12900
C1589       C  0.24758327  0.41410584  0.26530120     0.25100
C1590       C  0.22850877  0.42346211  0.26231811    -0.23000
C1591       C  0.22473991  0.43343247  0.24376256     0.20000
C1592       C  0.23930795  0.43321705  0.22828710     0.44200
C1593       C  0.25803769  0.42308864  0.23098281    -0.23000
C1594       C  0.26215388  0.41391019  0.24983978     0.19900
F1595       F  0.28014784  0.40429671  0.25327461    -0.12900
F1596       F  0.25203765  0.40463191  0.28303793    -0.15300
F1597       F  0.23479398  0.44257178  0.21048544    -0.15300
F1598       F  0.20675707  0.44307741  0.24031216    -0.12900
C1599       C  0.19050551  0.48795841  0.33047728     0.25100
C1600       C  0.17485630  0.47713852  0.32042870    -0.23000
C1601       C  0.15802808  0.48790141  0.31263082     0.20000
C1602       C  0.15764830  0.50905449  0.31337211     0.25000
C1603       C  0.17411974  0.51995059  0.32187071    -0.23000
C1604       C  0.19005583  0.50916111  0.33132323     0.19900
F1605       F  0.20583456  0.51910741  0.34040825    -0.12900
F1606       F  0.20679298  0.47815289  0.33863853    -0.15300
F1607       F  0.14162322  0.51884199  0.30468196    -0.15300
F1608       F  0.14245933  0.47809849  0.30305738    -0.12900
C1609       C  0.19745410  0.37627137  0.36780322     0.25100
C1610       C  0.17968865  0.38105926  0.35671876    -0.23000
C1611       C  0.16116652  0.37161425  0.36217439     0.20000
C1612       C  0.16071906  0.35668139  0.37733291     0.25000
C1613       C  0.17873470  0.35104383  0.38768278    -0.23000
C1614       C  0.19697883  0.36152458  0.38314276     0.19900
F1615       F  0.21456575  0.35722576  0.39322723    -0.12900
F1616       F  0.21541432  0.38575197  0.36368327    -0.15300
F1617       F  0.14273901  0.34711968  0.38117157    -0.15300
F1618       F  0.14356695  0.37607279  0.35216360    -0.12900
C1619       C  0.08792384  0.25386411  0.24354504     0.25100
C1620       C  0.08122012  0.27361301  0.24805162    -0.23000
C1621       C  0.07395455  0.27770765  0.26769367     0.20000
C1622       C  0.07375613  0.26252262  0.28253182     0.25000
C1623       C  0.08084638  0.24287123  0.27812444    -0.23000
C1624       C  0.08775537  0.23869603  0.25839558     0.19900
F1625       F  0.09436230  0.21987954  0.25336925    -0.12900
F1626       F  0.09479072  0.24915539  0.22474936    -0.15300
F1627       F  0.06711182  0.26729649  0.30139602    -0.15300
F1628       F  0.06738215  0.29653594  0.27277400    -0.12900
C1629       C  0.14080849  0.29876384  0.12875946     0.25100
C1630       C  0.14853735  0.31701413  0.12075352    -0.23000
C1631       C  0.14022251  0.33546924  0.12741838     0.20000
C1632       C  0.12552917  0.33574056  0.14276037     0.25000
C1633       C  0.11881708  0.31755078  0.15181896    -0.23000
C1634       C  0.12619582  0.29901514  0.14419555     0.19900
F1635       F  0.11977604  0.28107017  0.15205548    -0.12900
F1636       F  0.14771524  0.28061282  0.12195594    -0.15300
F1637       F  0.11869094  0.35395833  0.14941195    -0.15300
F1638       F  0.14715303  0.35340422  0.11996249    -0.12900
C1639       C  0.15407909  0.36653043  0.25513081     0.25100
C1640       C  0.14540244  0.38273903  0.26593052    -0.23000
C1641       C  0.12451598  0.38700275  0.26310004     0.20000
C1642       C  0.11244013  0.37486720  0.25030586     0.25000
C1643       C  0.12104525  0.35833082  0.23990356    -0.23000
C1644       C  0.14206688  0.35449292  0.24229242     0.19900
F1645       F  0.15114162  0.33908528  0.23213106    -0.12900
F1646       F  0.17433214  0.36239070  0.25677024    -0.15300
F1647       F  0.09220939  0.37904238  0.24854303    -0.15300
F1648       F  0.11560904  0.40264429  0.27305226    -0.12900
C1649       C  0.51017524  0.67561331  0.19559772     0.25100
C1650       C  0.52120952  0.68328417  0.17899787    -0.23000
C1651       C  0.51030290  0.69018849  0.16187871     0.20000
C1652       C  0.48891059  0.69101846  0.16211083     0.25000
C1653       C  0.47799030  0.68496305  0.17944116    -0.23000
C1654       C  0.48883024  0.67644935  0.19582858     0.19900
F1655       F  0.47891329  0.66995252  0.21266432    -0.12900
F1656       F  0.52004200  0.66807619  0.21209298    -0.15300
F1657       F  0.47895983  0.69845903  0.14561585    -0.15300
F1658       F  0.52029361  0.69716779  0.14527508    -0.12900
C1659       C  0.65013449  0.74681795  0.13747862     0.25100
C1660       C  0.64088645  0.75932969  0.12279749    -0.23000
C1661       C  0.61955202  0.75810879  0.12000944     0.20000
C1662       C  0.60778758  0.74473982  0.13174524     0.25000
C1663       C  0.61713736  0.73231272  0.14647572    -0.23000
C1664       C  0.63844069  0.73355516  0.14915676     0.19900
F1665       F  0.64813426  0.72196836  0.16321327    -0.12900
F1666       F  0.67064188  0.74733158  0.14066810    -0.15300
F1667       F  0.58722074  0.74428559  0.12891500    -0.15300
F1668       F  0.60998685  0.76996612  0.10609364    -0.12900
C1669       C  0.75875867  0.74430638  0.09911295     0.25100
C1670       C  0.75857501  0.72867079  0.08458207    -0.23000
C1671       C  0.74307135  0.72844355  0.06972273     0.20000
C1672       C  0.72771623  0.74306309  0.06978387     0.25000
C1673       C  0.72742244  0.75826321  0.08473288    -0.23000
C1674       C  0.74329634  0.75893575  0.09921885     0.19900
F1675       F  0.74350110  0.77328746  0.11397246    -0.12900
F1676       F  0.77345820  0.74506997  0.11369680    -0.15300
F1677       F  0.71300416  0.74216234  0.05522304    -0.15300
F1678       F  0.74256333  0.71390839  0.05514883    -0.12900
C1679       C  0.64226070  0.62211405  0.20400062     0.25100
C1680       C  0.64832374  0.61321283  0.18559813    -0.23000
C1681       C  0.63778166  0.61844563  0.16770834     0.20000
C1682       C  0.62258202  0.63334132  0.16800043     0.25000
C1683       C  0.61770787  0.64344073  0.18615326    -0.23000
C1684       C  0.62726042  0.63714603  0.20426198     0.19900
F1685       F  0.62271426  0.64603913  0.22223347    -0.12900
F1686       F  0.65137299  0.61685406  0.22177166    -0.15300
F1687       F  0.61329870  0.63845209  0.15028880    -0.15300
F1688       F  0.64275437  0.60984357  0.14971056    -0.12900
C1689       C  0.73448800  0.63934300  0.14710595     0.25100
C1690       C  0.73540694  0.61811287  0.14501108    -0.23000
C1691       C  0.74867550  0.60979736  0.13053558     0.20000
C1692       C  0.76118387  0.62239096  0.11882304     0.25000
C1693       C  0.76062840  0.64357629  0.12125174    -0.23000
C1694       C  0.74690890  0.65194494  0.13530634     0.19900
F1695       F  0.74531981  0.67235552  0.13753686    -0.12900
F1696       F  0.72143393  0.64797997  0.16048391    -0.15300
F1697       F  0.77431047  0.61375474  0.10553076    -0.15300
F1698       F  0.75011017  0.58940740  0.12815721    -0.12900
C1699       C  0.66215360  0.87720883  0.14077072     0.25100
C1700       C  0.68013144  0.88199232  0.15162748    -0.23000
C1701       C  0.69818191  0.87143049  0.14693970     0.20000
C1702       C  0.69794696  0.85558757  0.13282201     0.25000
C1703       C  0.67968419  0.84996569  0.12288609    -0.23000
C1704       C  0.66190808  0.86130139  0.12665917     0.19900
F1705       F  0.64410367  0.85674562  0.11700882    -0.12900
F1706       F  0.64460963  0.88756828  0.14412867    -0.15300
F1707       F  0.71548578  0.84513761  0.12967590    -0.15300
F1708       F  0.71602174  0.87582831  0.15660822    -0.12900
C1709       C  0.59067992  0.75074853  0.26526736     0.25100
C1710       C  0.58334062  0.77030050  0.26072360    -0.23000
C1711       C  0.57583998  0.77421452  0.24109608     0.20000
C1712       C  0.57579581  0.75908612  0.22632812     0.25000
C1713       C  0.58294443  0.73947336  0.23083066    -0.23000
C1714       C  0.59046425  0.73547804  0.25047155     0.19900
F1715       F  0.59776657  0.71685816  0.25538293    -0.12900
F1716       F  0.59800857  0.74631957  0.28403580    -0.15300
F1717       F  0.56890840  0.76385458  0.20748024    -0.15300
F1718       F  0.56877405  0.79286269  0.23594995    -0.12900
C1719       C  0.51292519  0.84027861  0.31061264     0.25100
C1720       C  0.52361862  0.82232992  0.31517580    -0.23000
C1721       C  0.51245835  0.80518406  0.32155542     0.20000
C1722       C  0.49110704  0.80569796  0.32247072     0.25000
C1723       C  0.48037857  0.82330620  0.31682090    -0.23000
C1724       C  0.49156055  0.84073364  0.31138254     0.19900
F1725       F  0.48180971  0.85812950  0.30618981    -0.12900
F1726       F  0.52302903  0.85726006  0.30463153    -0.15300
F1727       F  0.48095316  0.78852624  0.32781593    -0.15300
F1728       F  0.52209324  0.78754220  0.32609170    -0.12900
C1729       C  0.65238162  0.86671992  0.25194694     0.25100
C1730       C  0.64290903  0.88209963  0.24045479    -0.23000
C1731       C  0.62172421  0.88505498  0.24264158     0.20000
C1732       C  0.61026913  0.87266412  0.25568036     0.25000
C1733       C  0.61973057  0.85704707  0.26685603    -0.23000
C1734       C  0.64096223  0.85438047  0.26493913     0.19900
F1735       F  0.65084612  0.83987695  0.27577284    -0.12900
F1736       F  0.67284938  0.86363114  0.25082076    -0.15300
F1737       F  0.58982981  0.87578597  0.25706797    -0.15300
F1738       F  0.61197454  0.89980819  0.23203727    -0.12900
C1739       C  0.01190415  0.68552130  0.18437050     0.25100
C1740       C  0.02204387  0.66932573  0.19398176    -0.23000
C1741       C  0.01038112  0.65289902  0.20126051     0.20000
C1742       C  0.98901179  0.65351661  0.20052974     0.25000
C1743       C  0.97889755  0.67059957  0.19256400    -0.23000
C1744       C  0.99058222  0.68612248  0.18363483     0.19900
F1745       F  0.98142349  0.70242679  0.17496551    -0.12900
F1746       F  0.02253609  0.70141356  0.17658975    -0.15300
F1747       F  0.97829378  0.63788173  0.20871474    -0.15300
F1748       F  0.01955001  0.63664737  0.21002463    -0.12900
C1749       C  0.87415926  0.66105414  0.14653048     0.25100
C1750       C  0.88285290  0.67939215  0.15342219    -0.23000
C1751       C  0.87701182  0.69759952  0.14391560     0.20000
C1752       C  0.86195986  0.69762378  0.12875941     0.25000
C1753       C  0.85225645  0.67945046  0.12283149    -0.23000
C1754       C  0.85899679  0.66108448  0.13146146     0.19900
F1755       F  0.85030763  0.64314547  0.12602680    -0.12900
F1756       F  0.87953614  0.64309471  0.15506197    -0.15300
F1757       F  0.85646752  0.71560848  0.12036674    -0.15300
F1758       F  0.88549278  0.71554794  0.14961264    -0.12900
C1759       C  0.75668725  0.59040584  0.26339491     0.25100
C1760       C  0.77409881  0.57805350  0.26193836    -0.23000
C1761       C  0.77615195  0.56524107  0.24501294     0.20000
C1762       C  0.76148223  0.56530177  0.22954414     0.25000
C1763       C  0.74435197  0.57807436  0.23072356    -0.23000
C1764       C  0.74199553  0.59044839  0.24793762     0.19900
F1765       F  0.72580773  0.60315287  0.24957373    -0.12900
F1766       F  0.75415299  0.60301357  0.27944526    -0.15300
F1767       F  0.76414457  0.55286325  0.21338043    -0.15300
F1768       F  0.79240863  0.55262284  0.24334772    -0.12900
C1769       C  0.87953086  0.61527141  0.26706103     0.25100
C1770       C  0.85847526  0.61906021  0.26899288    -0.23000
C1771       C  0.84980818  0.63520391  0.25796121     0.20000
C1772       C  0.86180043  0.64705952  0.24511012     0.25000
C1773       C  0.88277740  0.64309895  0.24290635    -0.23000
C1774       C  0.89155361  0.62713173  0.25411292     0.19900
F1775       F  0.91183186  0.62308610  0.25277946    -0.12900
F1776       F  0.88859373  0.60020919  0.27783209    -0.15300
F1777       F  0.85271482  0.66237026  0.23470313    -0.15300
F1778       F  0.82959169  0.63951253  0.25937432    -0.12900
C1779       C  0.91683639  0.76142844  0.25914385     0.25100
C1780       C  0.92128319  0.75636331  0.27942842    -0.23000
C1781       C  0.92581857  0.73605183  0.28420335     0.20000
C1782       C  0.92594011  0.72119813  0.26910353     0.25000
C1783       C  0.92149549  0.72622298  0.24880591    -0.23000
C1784       C  0.91698443  0.74652873  0.24399342     0.19900
F1785       F  0.91272515  0.75204121  0.22460844    -0.12900
F1786       F  0.91222372  0.78079849  0.25391218    -0.15300
F1787       F  0.92984424  0.70173229  0.27457216    -0.15300
F1788       F  0.92960954  0.73032285  0.30363324    -0.12900
C1789       C  0.99052770  0.81835593  0.31782232     0.25100
C1790       C  0.97932702  0.80933844  0.33362306    -0.23000
C1791       C  0.99008455  0.80082124  0.35010500     0.20000
C1792       C  0.01148956  0.80020793  0.35010040     0.25000
C1793       C  0.02259513  0.80804675  0.33359955    -0.23000
C1794       C  0.01186558  0.81768443  0.31778961     0.19900
F1795       F  0.02193939  0.82582903  0.30177566    -0.12900
F1796       F  0.98086323  0.82707824  0.30181152    -0.15300
F1797       F  0.02124207  0.79115714  0.36589091    -0.15300
F1798       F  0.97995225  0.79233742  0.36591311    -0.12900
C1799       C  0.80136562  0.64064405  0.37825989     0.25100
C1800       C  0.81970107  0.64711113  0.38748804    -0.23000
C1801       C  0.83798022  0.63708897  0.38242038     0.20000
C1802       C  0.83807163  0.62199312  0.36742917     0.25000
C1803       C  0.81993014  0.61677950  0.35704170    -0.23000
C1804       C  0.80150069  0.62581466  0.36314032     0.19900
F1805       F  0.78354531  0.62087778  0.35395885    -0.12900
F1806       F  0.78324636  0.64920172  0.38326458    -0.15300
F1807       F  0.85610150  0.61319140  0.36249674    -0.15300
F1808       F  0.85596583  0.64244288  0.39131086    -0.12900
C1809       C  0.87820467  0.73737392  0.38863944     0.25100
C1810       C  0.85687546  0.73666659  0.38592393    -0.23000
C1811       C  0.84772261  0.74954150  0.37149481     0.20000
C1812       C  0.85969343  0.76270925  0.35991865     0.25000
C1813       C  0.88097142  0.76346743  0.36274679    -0.23000
C1814       C  0.89013456  0.75070812  0.37719156     0.19900
F1815       F  0.91074112  0.75057065  0.37969128    -0.12900
F1816       F  0.88760961  0.72485279  0.40206507    -0.15300
F1817       F  0.85041571  0.77501355  0.34619224    -0.15300
F1818       F  0.82712969  0.74975840  0.36885863    -0.12900
C1819       C  0.73824385  0.93153787  0.27870547     0.25100
C1820       C  0.75812048  0.92472182  0.27439408    -0.23000
C1821       C  0.76254594  0.91842142  0.25448161     0.20000
C1822       C  0.74714941  0.91792750  0.23957853     0.25000
C1823       C  0.72712703  0.92421101  0.24413701    -0.23000
C1824       C  0.72300803  0.93132807  0.26380581     0.19900
F1825       F  0.70396640  0.93750939  0.26897388    -0.12900
F1826       F  0.73326071  0.93803246  0.29756323    -0.15300
F1827       F  0.75182823  0.91101468  0.22078998    -0.15300
F1828       F  0.78168531  0.91243488  0.24943717    -0.12900
C1829       C  0.86158069  0.87678161  0.34054740     0.25100
C1830       C  0.85141571  0.88167881  0.32230487    -0.23000
C1831       C  0.85735831  0.87170999  0.30440922     0.20000
C1832       C  0.87231089  0.85659687  0.30488118     0.25000
C1833       C  0.88175481  0.85097598  0.32326908    -0.23000
C1834       C  0.87658007  0.86162554  0.34101515     0.19900
F1835       F  0.88546352  0.85690160  0.35903863    -0.12900
F1836       F  0.85659324  0.88616640  0.35814197    -0.15300
F1837       F  0.87712183  0.84711391  0.28728400    -0.15300
F1838       F  0.84828280  0.87610922  0.28639577    -0.12900
C1839       C  0.77811748  0.76163263  0.43555368     0.25100
C1840       C  0.77400576  0.74252535  0.42684227    -0.23000
C1841       C  0.75459327  0.73898601  0.41820575     0.20000
C1842       C  0.74000419  0.75445360  0.41746816     0.25000
C1843       C  0.74436360  0.77372762  0.42563947    -0.23000
C1844       C  0.76346523  0.77700644  0.43501258     0.19900
F1845       F  0.76829071  0.79530893  0.44321211    -0.12900
F1846       F  0.79649423  0.76567960  0.44433876    -0.15300
F1847       F  0.72167127  0.75055084  0.40853425    -0.15300
F1848       F  0.74977897  0.72066702  0.41006043    -0.12900
C1849       C  0.63905357  0.83642032  0.38072113     0.25100
C1850       C  0.64903029  0.81854800  0.38689423    -0.23000
C1851       C  0.64235365  0.79988850  0.37877148     0.20000
C1852       C  0.62725140  0.79928384  0.36369597     0.25000
C1853       C  0.61837307  0.81731331  0.35643341    -0.23000
C1854       C  0.62381074  0.83579047  0.36574486     0.19900
F1855       F  0.61518771  0.85347452  0.35963789    -0.12900
F1856       F  0.64467901  0.85470462  0.38842567    -0.15300
F1857       F  0.62189709  0.78102750  0.35571776    -0.15300
F1858       F  0.65101287  0.78217850  0.38476635    -0.12900
C1859       C  0.74553510  0.85166726  0.36582350     0.25100
C1860       C  0.73809000  0.85903473  0.38440686    -0.23000
C1861       C  0.74322782  0.87897396  0.39025438     0.20000
C1862       C  0.75551333  0.89119327  0.37780716     0.25000
C1863       C  0.76297867  0.88373736  0.35925065    -0.23000
C1864       C  0.75773065  0.86384531  0.35341473     0.19900
F1865       F  0.76449729  0.85596672  0.33567265    -0.12900
F1866       F  0.74112608  0.83252927  0.35954742    -0.15300
F1867       F  0.75996802  0.91037298  0.38392357    -0.15300
F1868       F  0.73642674  0.88671185  0.40804234    -0.12900
C1869       C  0.69432884  0.48726249  0.16114212     0.25100
C1870       C  0.68648823  0.47671821  0.17797175    -0.23000
C1871       C  0.67825426  0.48791561  0.19414297     0.20000
C1872       C  0.67914757  0.50912268  0.19409566     0.25000
C1873       C  0.68834007  0.51962559  0.17789968    -0.23000
C1874       C  0.69528178  0.50845755  0.16111939     0.19900
F1875       F  0.70387869  0.51793035  0.14498517    -0.12900
F1876       F  0.70207713  0.47708657  0.14504816    -0.15300
F1877       F  0.67168996  0.51928454  0.21033934    -0.15300
F1878       F  0.67002079  0.47838684  0.21044341    -0.12900
C1879       C  0.75647920  0.34936177  0.14449353     0.25100
C1880       C  0.76382892  0.35645458  0.12575340    -0.23000
C1881       C  0.75741831  0.37556206  0.11872125     0.20000
C1882       C  0.74396072  0.38730851  0.13016468     0.25000
C1883       C  0.73650350  0.38015357  0.14883961    -0.23000
C1884       C  0.74294600  0.36102831  0.15585956     0.19900
F1885       F  0.73618720  0.35348475  0.17378164    -0.12900
F1886       F  0.76240113  0.33109864  0.15196863    -0.15300
F1887       F  0.73835235  0.40575264  0.12293692    -0.15300
F1888       F  0.76394930  0.38285785  0.10062215    -0.12900
C1889       C  0.99149673  0.34431582  0.20172354     0.25100
C1890       C  0.97986728  0.32814920  0.19375905    -0.23000
C1891       C  0.99010643  0.31200346  0.18426458     0.20000
C1892       C  0.01146700  0.31128910  0.18412724     0.25000
C1893       C  0.02311271  0.32691845  0.19308189    -0.23000
C1894       C  0.01287127  0.34375350  0.20129425     0.19900
F1895       F  0.02348087  0.35915774  0.21011218    -0.12900
F1896       F  0.98227100  0.36025317  0.21089221    -0.15300
F1897       F  0.02068302  0.29482779  0.17592910    -0.15300
F1898       F  0.97950555  0.29628985  0.17598181    -0.12900
C1899       C  0.87279688  0.30060564  0.15200604     0.25100
C1900       C  0.88264117  0.31895556  0.15711813    -0.23000
C1901       C  0.87737152  0.33669218  0.14648440     0.20000
C1902       C  0.86194120  0.33629230  0.13175858     0.25000
C1903       C  0.85142791  0.31814446  0.12732649    -0.23000
C1904       C  0.85726776  0.30023328  0.13738708     0.19900
F1905       F  0.84759267  0.28237655  0.13354780    -0.12900
F1906       F  0.87755494  0.28307187  0.16172014    -0.15300
F1907       F  0.85671019  0.35393571  0.12251451    -0.15300
F1908       F  0.88671895  0.35462911  0.15070252    -0.12900
C1909       C  0.77533197  0.43003975  0.24185195     0.25100
C1910       C  0.77087722  0.42312493  0.26153542    -0.23000
C1911       C  0.75078459  0.41704754  0.26609654     0.20000
C1912       C  0.73570677  0.41696873  0.25103800     0.25000
C1913       C  0.74046801  0.42285015  0.23110553    -0.23000
C1914       C  0.76031251  0.42986443  0.22680294     0.19900
F1915       F  0.76547587  0.43603839  0.20785876    -0.12900
F1916       F  0.79439432  0.43649591  0.23688919    -0.15300
F1917       F  0.71655288  0.41076409  0.25595297    -0.15300
F1918       F  0.74574626  0.41074348  0.28502149    -0.12900
C1919       C  0.80679207  0.48917159  0.32180070     0.25100
C1920       C  0.82368614  0.47808780  0.31479655    -0.23000
C1921       C  0.84129450  0.48869039  0.30861065     0.20000
C1922       C  0.84177672  0.50988685  0.30880041     0.25000
C1923       C  0.82459249  0.52100882  0.31500849    -0.23000
C1924       C  0.80721238  0.51038293  0.32185157     0.19900
F1925       F  0.79017763  0.52044551  0.32773978    -0.12900
F1926       F  0.78939069  0.47956700  0.32763745    -0.15300
F1927       F  0.85892777  0.51947279  0.30228802    -0.15300
F1928       F  0.85793732  0.47859237  0.30177678    -0.12900
C1929       C  0.85039233  0.36174056  0.26313506     0.25100
C1930       C  0.85650569  0.38132566  0.26915702    -0.23000
C1931       C  0.87558300  0.38879924  0.26272924     0.20000
C1932       C  0.88821428  0.37698226  0.25045539     0.25000
C1933       C  0.88208477  0.35739575  0.24442883    -0.23000
C1934       C  0.86307127  0.34987437  0.25104694     0.19900
F1935       F  0.85659504  0.33098366  0.24582952    -0.12900
F1936       F  0.83211133  0.35392240  0.26897200    -0.15300
F1937       F  0.90647364  0.38476515  0.24454674    -0.15300
F1938       F  0.88195745  0.40768973  0.26804240    -0.12900
C1939       C  0.50905248  0.30286624  0.16079052     0.25100
C1940       C  0.52037151  0.30958270  0.17770577    -0.23000
C1941       C  0.50979340  0.31736617  0.19453006     0.20000
C1942       C  0.48840293  0.31707479  0.19498607     0.25000
C1943       C  0.47710180  0.30914945  0.17855887    -0.23000
C1944       C  0.48767403  0.30265985  0.16120395     0.19900
F1945       F  0.47737353  0.29542365  0.14480518    -0.12900
F1946       F  0.51865362  0.29584592  0.14401795    -0.15300
F1947       F  0.47886112  0.32348047  0.21204292    -0.15300
F1948       F  0.52009304  0.32413981  0.21113187    -0.12900
C1949       C  0.62387186  0.35749672  0.16620416     0.25100
C1950       C  0.61728487  0.34844823  0.18439251    -0.23000
C1951       C  0.62516862  0.35578575  0.20290442     0.20000
C1952       C  0.64004646  0.37103401  0.20317575     0.25000
C1953       C  0.64718252  0.37953648  0.18496230    -0.23000
C1954       C  0.63854755  0.37298188  0.16650717     0.19900
F1955       F  0.64508526  0.38075264  0.14860317    -0.12900
F1956       F  0.61682893  0.35081207  0.14799598    -0.15300
F1957       F  0.64786332  0.37703448  0.22132376    -0.15300
F1958       F  0.61906345  0.34773239  0.22083443    -0.12900
C1959       C  0.72164328  0.26376672  0.07994987     0.25100
C1960       C  0.72694443  0.24320573  0.08206145    -0.23000
C1961       C  0.74764573  0.23801342  0.08438405     0.20000
C1962       C  0.76269871  0.25311754  0.08513575     0.25000
C1963       C  0.75735337  0.27369952  0.08333338    -0.23000
C1964       C  0.73666496  0.27882690  0.08052502     0.19900
F1965       F  0.73076217  0.29849692  0.07899534    -0.12900
F1966       F  0.70180016  0.26946766  0.07805656    -0.15300
F1967       F  0.78247791  0.24754281  0.08779759    -0.15300
F1968       F  0.75337261  0.21830861  0.08596039    -0.12900
C1969       C  0.64932942  0.24044373  0.14235676     0.25100
C1970       C  0.64360643  0.23586236  0.12227224    -0.23000
C1971       C  0.62549331  0.24429819  0.11441076     0.20000
C1972       C  0.61322796  0.25676863  0.12642883     0.25000
C1973       C  0.61879178  0.26112789  0.14661232    -0.23000
C1974       C  0.63706641  0.25287575  0.15438138     0.19900
F1975       F  0.64315275  0.25673393  0.17371029    -0.12900
F1976       F  0.66675663  0.23278411  0.15052738    -0.15300
F1977       F  0.59590770  0.26457560  0.11820296    -0.15300
F1978       F  0.61974964  0.24078631  0.09492073    -0.12900
C1979       C  0.56830310  0.23609029  0.22789669     0.25100
C1980       C  0.57698728  0.25534629  0.23141971    -0.23000
C1981       C  0.58513739  0.25966746  0.25075118     0.20000
C1982       C  0.58535711  0.24478789  0.26590956     0.25000
C1983       C  0.57720201  0.22534447  0.26214779    -0.23000
C1984       C  0.56840437  0.22129822  0.24304948     0.19900
F1985       F  0.56036961  0.20277699  0.23870398    -0.12900
F1986       F  0.56010071  0.23126805  0.20956991    -0.15300
F1987       F  0.59382553  0.24939786  0.28417264    -0.15300
F1988       F  0.59312409  0.27822729  0.25500344    -0.12900
C1989       C  0.48894602  0.19026933  0.32661519     0.25100
C1990       C  0.47769098  0.17364302  0.31904245    -0.23000
C1991       C  0.48832505  0.15657319  0.31191010     0.20000
C1992       C  0.50965392  0.15659894  0.31124618     0.25000
C1993       C  0.52087540  0.17364251  0.31780287    -0.23000
C1994       C  0.51030862  0.19025736  0.32602269     0.19900
F1995       F  0.52053487  0.20703712  0.33246397    -0.12900
F1996       F  0.47933226  0.20702621  0.33370097    -0.15300
F1997       F  0.51923427  0.14019716  0.30333917    -0.15300
F1998       F  0.47812560  0.14019238  0.30448567    -0.12900
C1999       C  0.65497419  0.99067251  0.19936754     0.25100
C2000       C  0.67113148  0.97977118  0.19053943    -0.23000
C2001       C  0.68655585  0.99064680  0.18033539     0.20000
C2002       C  0.68657090  0.01187856  0.18019489     0.25000
C2003       C  0.67110176  0.02274042  0.19012520    -0.23000
C2004       C  0.65491357  0.01190169  0.19907395     0.19900
F2005       F  0.63960424  0.02179793  0.20869814    -0.12900
F2006       F  0.63963654  0.98087825  0.20915940    -0.15300
F2007       F  0.70218320  0.02178096  0.17093188    -0.15300
F2008       F  0.70224550  0.98081985  0.17127970    -0.12900
C2009       C  0.69770881  0.12396670  0.14236651     0.25100
C2010       C  0.67926523  0.11873558  0.15202441    -0.23000
C2011       C  0.66105389  0.12799751  0.14543376     0.20000
C2012       C  0.66137866  0.14276936  0.13024036     0.25000
C2013       C  0.67991558  0.14864627  0.12120296    -0.23000
C2014       C  0.69801725  0.13873365  0.12708451     0.19900
F2015       F  0.71613789  0.14362527  0.11837398    -0.12900
F2016       F  0.71558215  0.11518329  0.14801955    -0.15300
F2017       F  0.64360835  0.15214355  0.12526426    -0.15300
F2018       F  0.64295205  0.12360992  0.15442526    -0.12900
C2019       C  0.62426644  0.10819539  0.25233687     0.25100
C2020       C  0.63992677  0.11721160  0.24077848    -0.23000
C2021       C  0.64320914  0.13822451  0.24240538     0.20000
C2022       C  0.63159333  0.14989528  0.25560499     0.25000
C2023       C  0.61636129  0.14091591  0.26767392    -0.23000
C2024       C  0.61262900  0.11993608  0.26574227     0.19900
F2025       F  0.59790745  0.11071480  0.27692328    -0.12900
F2026       F  0.62043804  0.08798456  0.25097935    -0.15300
F2027       F  0.63519492  0.17017717  0.25629534    -0.15300
F2028       F  0.65757883  0.14769456  0.23099262    -0.12900
C2029       C  0.75956744  0.08722747  0.25814623     0.25100
C2030       C  0.75501351  0.08017647  0.27777005    -0.23000
C2031       C  0.73554200  0.07185625  0.28147769     0.20000
C2032       C  0.72072350  0.07133295  0.26616974     0.25000
C2033       C  0.72497685  0.07920808  0.24680022    -0.23000
C2034       C  0.74471946  0.08669973  0.24281671     0.19900
F2035       F  0.74972879  0.09353181  0.22406565    -0.12900
F2036       F  0.77831127  0.09491949  0.25377431    -0.15300
F2037       F  0.70203541  0.06350053  0.27054557    -0.15300
F2038       F  0.73067713  0.06431609  0.29999924    -0.12900
C2039       C  0.80697584  0.01183470  0.34670057     0.25100
C2040       C  0.81199951  0.02301987  0.32921030    -0.23000
C2041       C  0.81897103  0.01248929  0.31202258     0.20000
C2042       C  0.81982216  0.99130358  0.31193175     0.25000
C2043       C  0.81344920  0.98004209  0.32891955    -0.23000
C2044       C  0.80767319  0.99058495  0.34654956     0.19900
F2045       F  0.80186225  0.98036328  0.36344595    -0.12900
F2046       F  0.80045960  0.02135460  0.36371534    -0.15300
F2047       F  0.82588476  0.98184917  0.29471489    -0.15300
F2048       F  0.82406129  0.02258668  0.29481985    -0.12900
C2049       C  0.64017951  0.19903629  0.37930460     0.25100
C2050       C  0.64844060  0.18073158  0.38659951    -0.23000
C2051       C  0.64035351  0.16225909  0.37940802     0.20000
C2052       C  0.62515985  0.16208316  0.36445982     0.25000
C2053       C  0.61775034  0.18036517  0.35631489    -0.23000
C2054       C  0.62499338  0.19885197  0.36431030     0.19900
F2055       F  0.61774252  0.21682178  0.35730996    -0.12900
F2056       F  0.64716095  0.21718661  0.38623944    -0.15300
F2057       F  0.61858624  0.14393139  0.35716959    -0.15300
F2058       F  0.64785593  0.14425467  0.38603015    -0.12900
C2059       C  0.75255344  0.15282537  0.37457122     0.25100
C2060       C  0.73900419  0.14388458  0.38849232    -0.23000
C2061       C  0.73867599  0.12264963  0.39047818     0.20000
C2062       C  0.75117595  0.11056046  0.37833176     0.25000
C2063       C  0.76445581  0.11948896  0.36414210    -0.23000
C2064       C  0.76523816  0.14077891  0.36264707     0.19900
F2065       F  0.77825345  0.15004504  0.34958194    -0.12900
F2066       F  0.75362483  0.17329500  0.37247959    -0.15300
F2067       F  0.74970168  0.09008823  0.37999196    -0.15300
F2068       F  0.72571594  0.11349293  0.40365807    -0.12900
C2069       C  0.91465432  0.24050355  0.26056734     0.25100
C2070       C  0.92441875  0.24357267  0.27936739    -0.23000
C2071       C  0.93533958  0.26174609  0.28263559     0.20000
C2072       C  0.93564166  0.27687543  0.26777527     0.25000
C2073       C  0.92492034  0.27419630  0.24940782    -0.23000
C2074       C  0.91481732  0.25565999  0.24581022     0.19900
F2075       F  0.90467914  0.25223663  0.22812818    -0.12900
F2076       F  0.90457309  0.22293030  0.25648144    -0.15300
F2077       F  0.94604350  0.29432583  0.27163879    -0.15300
F2078       F  0.94537261  0.26516406  0.30038229    -0.12900
C2079       C  0.98913102  0.17935226  0.31273683     0.25100
C2080       C  0.97868629  0.18610167  0.33008150    -0.23000
C2081       C  0.99013170  0.19147799  0.34739291     0.20000
C2082       C  0.01150491  0.19134544  0.34695025     0.25000
C2083       C  0.02196456  0.18618980  0.32907842    -0.23000
C2084       C  0.01051642  0.17955018  0.31217886     0.19900
F2085       F  0.01990211  0.17417642  0.29468908    -0.12900
F2086       F  0.97870591  0.17359021  0.29583069    -0.15300
F2087       F  0.02191005  0.19711997  0.36385160    -0.15300
F2088       F  0.98071024  0.19775762  0.36455922    -0.12900
C2089       C  0.87034505  0.14505877  0.30512855     0.25100
C2090       C  0.88043047  0.15029585  0.32330991    -0.23000
C2091       C  0.87560736  0.13949688  0.34109548     0.20000
C2092       C  0.86069055  0.12421565  0.34080318     0.25000
C2093       C  0.84991191  0.11970900  0.32283241    -0.23000
C2094       C  0.85516672  0.13008763  0.30493165     0.19900
F2095       F  0.84521152  0.12622489  0.28723093    -0.12900
F2096       F  0.87457508  0.15491221  0.28755736    -0.15300
F2097       F  0.85625770  0.11443786  0.35836197    -0.15300
F2098       F  0.88480575  0.14413020  0.35900200    -0.12900
C2099       C  0.77564731  0.23984632  0.43824263     0.25100
C2100       C  0.77327277  0.25754960  0.42654871    -0.23000
C2101       C  0.75514249  0.26015314  0.41528203     0.20000
C2102       C  0.73989483  0.24525546  0.41544548     0.25000
C2103       C  0.74236603  0.22746267  0.42698561    -0.23000
C2104       C  0.76031298  0.22505405  0.43857731     0.19900
F2105       F  0.76328620  0.20818984  0.45002061    -0.12900
F2106       F  0.79296060  0.23660193  0.44917816    -0.15300
F2107       F  0.72295525  0.24809687  0.40383326    -0.15300
F2108       F  0.75234646  0.27683798  0.40354030    -0.12900
C2109       C  0.79937663  0.35454562  0.37437392     0.25100
C2110       C  0.81760832  0.35038977  0.38501532    -0.23000
C2111       C  0.83496807  0.36244079  0.38112030     0.20000
C2112       C  0.83437774  0.37760329  0.36624470     0.25000
C2113       C  0.81647569  0.38090533  0.35479246    -0.23000
C2114       C  0.79885536  0.36951497  0.35938486     0.19900
F2115       F  0.78114614  0.37239555  0.34897518    -0.12900
F2116       F  0.78210280  0.34364856  0.37789288    -0.15300
F2117       F  0.85161204  0.38850185  0.36257286    -0.15300
F2118       F  0.85273540  0.35925987  0.39132013    -0.12900
C2119       C  0.85144777  0.25663029  0.36787842     0.25100
C2120       C  0.85827403  0.26295967  0.38711216    -0.23000
C2121       C  0.87738414  0.25621049  0.39425641     0.20000
C2122       C  0.88946375  0.24349753  0.38227847     0.25000
C2123       C  0.88267401  0.23739345  0.36291519    -0.23000
C2124       C  0.86351116  0.24412489  0.35590776     0.19900
F2125       F  0.85628280  0.23866532  0.33736177    -0.12900
F2126       F  0.83307447  0.26267888  0.36041879    -0.15300
F2127       F  0.90781983  0.23729240  0.38962778    -0.15300
F2128       F  0.88430460  0.26166784  0.41291779    -0.12900
C2129       C  0.14609830  0.63989663  0.74039267     0.25100
C2130       C  0.14214666  0.61896787  0.73840682    -0.23000
C2131       C  0.12572591  0.61042618  0.74919959     0.20000
C2132       C  0.11408891  0.62230585  0.76231262     0.25000
C2133       C  0.11869157  0.64297383  0.76508761    -0.23000
C2134       C  0.13458676  0.65173725  0.75367737     0.19900
F2135       F  0.13905114  0.67181103  0.75530213    -0.12900
F2136       F  0.16118994  0.64898400  0.72958644    -0.15300
F2137       F  0.09853215  0.61339247  0.77257933    -0.15300
F2138       F  0.12113630  0.59040737  0.74748442    -0.12900
C2139       C  0.09085793  0.75787471  0.74933856     0.25100
C2140       C  0.07916217  0.75504578  0.73159472    -0.23000
C2141       C  0.06721869  0.73735160  0.72961334     0.20000
C2142       C  0.06757642  0.72247500  0.74466582     0.25000
C2143       C  0.07968077  0.72506635  0.76219514    -0.23000
C2144       C  0.09113646  0.74303352  0.76445364     0.19900
F2145       F  0.10307616  0.74610295  0.78106613    -0.12900
F2146       F  0.10241335  0.77482393  0.75197402    -0.15300
F2147       F  0.05635845  0.70533859  0.74176731    -0.15300
F2148       F  0.05543347  0.73415619  0.71290496    -0.12900
C2149       C  0.19128164  0.67401926  0.51680677     0.25100
C2150       C  0.17559001  0.68364422  0.52764648    -0.23000
C2151       C  0.15878813  0.69153148  0.51686612     0.20000
C2152       C  0.15864336  0.69157182  0.49568725     0.25000
C2153       C  0.17535511  0.68382223  0.48483335    -0.23000
C2154       C  0.19126023  0.67426507  0.49561058     0.19900
F2155       F  0.20740876  0.66608977  0.48573145    -0.12900
F2156       F  0.20728005  0.66532349  0.52664209    -0.15300
F2157       F  0.14259907  0.70023837  0.48589630    -0.15300
F2158       F  0.14286143  0.70011254  0.52675846    -0.12900
C2159       C  0.20194904  0.63727280  0.62971265     0.25100
C2160       C  0.18360063  0.64560031  0.62230571    -0.23000
C2161       C  0.16491419  0.63757335  0.62924356     0.20000
C2162       C  0.16460900  0.62271224  0.64438758     0.25000
C2163       C  0.18297874  0.61548611  0.65286461    -0.23000
C2164       C  0.20164268  0.62244806  0.64488490     0.19900
F2165       F  0.21969572  0.61533910  0.65214532    -0.12900
F2166       F  0.22028560  0.64386815  0.62271715    -0.15300
F2167       F  0.14625946  0.61632475  0.65154899    -0.15300
F2168       F  0.14683103  0.64480171  0.62216883    -0.12900
C2169       C  0.12514583  0.73645860  0.61846037     0.25100
C2170       C  0.14580002  0.73344678  0.62372743    -0.23000
C2171       C  0.15365947  0.74314114  0.64113549     0.20000
C2172       C  0.14114820  0.75537090  0.65307104     0.25000
C2173       C  0.12055577  0.75851573  0.64771219    -0.23000
C2174       C  0.11269152  0.74892249  0.63027920     0.19900
F2175       F  0.09281878  0.75130118  0.62479707    -0.12900
F2176       F  0.11689105  0.72731768  0.60188507    -0.15300
F2177       F  0.14937907  0.76439488  0.66973151    -0.15300
F2178       F  0.17358515  0.74106118  0.64656888    -0.12900
C2179       C  0.18164657  0.69261908  0.99626679     0.25100
C2180       C  0.18853891  0.67535469  0.98576992    -0.23000
C2181       C  0.19432995  0.65815578  0.99703293     0.20000
C2182       C  0.19430106  0.65856261  0.01824056     0.25000
C2183       C  0.18836582  0.67614675  0.02875656    -0.23000
C2184       C  0.18148640  0.69298246  0.01749800     0.19900
F2185       F  0.17551370  0.71024586  0.02695550    -0.12900
F2186       F  0.17602980  0.70961674  0.98606883    -0.15300
F2187       F  0.20087616  0.64191006  0.02842820    -0.15300
F2188       F  0.20077228  0.64107620  0.98756935    -0.12900
C2189       C  0.12522610  0.69671551  0.86627299     0.25100
C2190       C  0.11943852  0.67841161  0.85680905    -0.23000
C2191       C  0.12776455  0.66012848  0.86410478     0.20000
C2192       C  0.14233732  0.66024288  0.87970382     0.25000
C2193       C  0.14915922  0.67865508  0.88820805    -0.23000
C2194       C  0.14004592  0.69685451  0.88166714     0.19900
F2195       F  0.14581106  0.71491962  0.88979650    -0.12900
F2196       F  0.11696454  0.71462201  0.86030126    -0.15300
F2197       F  0.15054701  0.64232114  0.88567817    -0.15300
F2198       F  0.12256070  0.64210220  0.85554437    -0.12900
C2199       C  0.22134087  0.57474848  0.77054397     0.25100
C2200       C  0.22671102  0.57902400  0.75032794    -0.23000
C2201       C  0.24742018  0.58258368  0.74574314     0.20000
C2202       C  0.26233002  0.58215115  0.76105587     0.25000
C2203       C  0.25686753  0.57815580  0.78128274    -0.23000
C2204       C  0.23623577  0.57426441  0.78580100     0.19900
F2205       F  0.23029311  0.57052017  0.80513939    -0.12900
F2206       F  0.20155942  0.57143337  0.77574879    -0.15300
F2207       F  0.28215650  0.58544948  0.75600564    -0.15300
F2208       F  0.25333479  0.58643502  0.72642265    -0.12900
C2209       C  0.25865960  0.63575862  0.85976591     0.25100
C2210       C  0.26396170  0.61604371  0.86607808    -0.23000
C2211       C  0.25622250  0.60888746  0.88468154     0.20000
C2212       C  0.24335092  0.62109784  0.89650531     0.25000
C2213       C  0.23794051  0.64073958  0.88999291    -0.23000
C2214       C  0.24584784  0.64786976  0.87149435     0.19900
F2215       F  0.24125242  0.66671942  0.86459438    -0.12900
F2216       F  0.26584915  0.64351483  0.84210943    -0.15300
F2217       F  0.23622564  0.61364382  0.91431896    -0.15300
F2218       F  0.26102596  0.59005540  0.89147297    -0.12900
C2219       C  0.14074155  0.87110715  0.66575425     0.25100
C2220       C  0.14748443  0.87937539  0.68431659    -0.23000
C2221       C  0.13835405  0.87259386  0.70237764     0.20000
C2222       C  0.12368824  0.85712181  0.70199105     0.25000
C2223       C  0.11786262  0.84801035  0.68353592    -0.23000
C2224       C  0.12610508  0.85559636  0.66537356     0.19900
F2225       F  0.12071969  0.84743351  0.64721524    -0.12900
F2226       F  0.14899183  0.87728601  0.64793945    -0.15300
F2227       F  0.11572717  0.85063709  0.71983302    -0.15300
F2228       F  0.14405119  0.88045527  0.72057361    -0.12900
C2229       C  0.26359168  0.75471096  0.59198730     0.25100
C2230       C  0.25919265  0.77326721  0.58233639    -0.23000
C2231       C  0.24036302  0.77538405  0.57217349     0.20000
C2232       C  0.22605615  0.75959412  0.57213539     0.25000
C2233       C  0.23015122  0.74125052  0.58231338    -0.23000
C2234       C  0.24924571  0.73887430  0.59195381     0.19900
F2235       F  0.25398779  0.72134935  0.60167448    -0.12900
F2236       F  0.28168672  0.75190187  0.60173097    -0.15300
F2237       F  0.20794434  0.76257238  0.56247670    -0.15300
F2238       F  0.23544404  0.79297466  0.56265402    -0.12900
C2239       C  0.29839589  0.84506062  0.51430939     0.25100
C2240       C  0.31035157  0.83109153  0.52526392    -0.23000
C2241       C  0.32353134  0.81818043  0.51451008     0.20000
C2242       C  0.32348551  0.81809265  0.49327238     0.25000
C2243       C  0.31029453  0.83095824  0.48233426    -0.23000
C2244       C  0.29839895  0.84502407  0.49311474     0.19900
F2245       F  0.28595341  0.85819252  0.48321538    -0.12900
F2246       F  0.28578361  0.85810429  0.52402930    -0.15300
F2247       F  0.33578455  0.80480200  0.48348658    -0.15300
F2248       F  0.33601367  0.80511296  0.52449574    -0.12900
C2249       C  0.26023221  0.87951913  0.61966563     0.25100
C2250       C  0.26247975  0.85854847  0.62307274    -0.23000
C2251       C  0.25127690  0.84943674  0.63884557     0.20000
C2252       C  0.23816676  0.86093499  0.65085719     0.25000
C2253       C  0.23600371  0.88190137  0.64756710    -0.23000
C2254       C  0.24708734  0.89106164  0.63175055     0.19900
F2255       F  0.24550896  0.91127181  0.62815274    -0.12900
F2256       F  0.27091879  0.88897162  0.60479657    -0.15300
F2257       F  0.22734505  0.85136847  0.66556977    -0.15300
F2258       F  0.25279617  0.82925794  0.64264275    -0.12900
C2259       C  0.27692529  0.92806401  0.74282663     0.25100
C2260       C  0.27354727  0.91921843  0.76193699    -0.23000
C2261       C  0.25394436  0.91157450  0.76642047     0.20000
C2262       C  0.23844104  0.91175456  0.75170023     0.25000
C2263       C  0.24217303  0.91974163  0.73226335    -0.23000
C2264       C  0.26143156  0.92839517  0.72822072     0.19900
F2265       F  0.26556988  0.93681864  0.70990661    -0.12900
F2266       F  0.29539446  0.93613446  0.73800500    -0.15300
F2267       F  0.21984534  0.90395341  0.75648291    -0.15300
F2268       F  0.24976220  0.90369533  0.78496543    -0.12900
C2269       C  0.37619852  0.80133074  0.64110942     0.25100
C2270       C  0.38314908  0.81916756  0.65066956    -0.23000
C2271       C  0.37569831  0.83798617  0.64376290     0.20000
C2272       C  0.36072274  0.83884211  0.62856150     0.25000
C2273       C  0.35276070  0.82090436  0.62001333    -0.23000
C2274       C  0.36119662  0.80218987  0.62595282     0.19900
F2275       F  0.35443493  0.78455571  0.61762132    -0.12900
F2276       F  0.38338317  0.78290828  0.64686708    -0.15300
F2277       F  0.35325564  0.85723323  0.62305365    -0.15300
F2278       F  0.38202566  0.85559905  0.65245997    -0.12900
C2279       C  0.36536813  0.84593293  0.75026418     0.25100
C2280       C  0.38273896  0.85401220  0.74059342    -0.23000
C2281       C  0.38826711  0.87429520  0.74455135     0.20000
C2282       C  0.37664589  0.88622164  0.75776621     0.25000
C2283       C  0.35913113  0.87818654  0.76723437    -0.23000
C2284       C  0.35374282  0.85784188  0.76339702     0.19900
F2285       F  0.33726266  0.84927954  0.77249903    -0.12900
F2286       F  0.35967506  0.82633101  0.74727505    -0.15300
F2287       F  0.38245209  0.90573799  0.76104859    -0.15300
F2288       F  0.40479633  0.88274441  0.73544464    -0.12900
C2289       C  0.27581117  0.74001849  0.93936908     0.25100
C2290       C  0.27281269  0.75795583  0.92817881    -0.23000
C2291       C  0.25450724  0.76029630  0.91713346     0.20000
C2292       C  0.23976579  0.74485385  0.91691212     0.25000
C2293       C  0.24298145  0.72673415  0.92775774    -0.23000
C2294       C  0.26107175  0.72462511  0.93919734     0.19900
F2295       F  0.26465170  0.70759609  0.95021668    -0.12900
F2296       F  0.29308574  0.73725031  0.95050309    -0.15300
F2297       F  0.22254159  0.74753557  0.90568532    -0.15300
F2298       F  0.25103178  0.77730214  0.90605377    -0.12900
C2299       C  0.30934149  0.82163911  0.99710025     0.25100
C2300       C  0.32612286  0.81444808  0.98596246    -0.23000
C2301       C  0.34390008  0.80860303  0.99659023     0.20000
C2302       C  0.34429100  0.80852810  0.01784548     0.25000
C2303       C  0.32692919  0.81432200  0.02892990    -0.23000
C2304       C  0.30980157  0.82172417  0.01828760     0.19900
F2305       F  0.29298653  0.82821175  0.02833117    -0.12900
F2306       F  0.29199551  0.82776326  0.98757119    -0.15300
F2307       F  0.36141604  0.80199846  0.02750776    -0.15300
F2308       F  0.36064063  0.80202702  0.98649253    -0.12900
C2309       C  0.33621211  0.86321572  0.88389253     0.25100
C2310       C  0.31811201  0.85244886  0.88826711    -0.23000
C2311       C  0.30015935  0.85746923  0.87753561     0.20000
C2312       C  0.30055977  0.87201347  0.86209404     0.25000
C2313       C  0.31896174  0.88179473  0.85679911    -0.23000
C2314       C  0.33662206  0.87774343  0.86836630     0.19900
F2315       F  0.35452940  0.88732318  0.86425680    -0.12900
F2316       F  0.35378977  0.85919550  0.89411190    -0.15300
F2317       F  0.28296887  0.87589207  0.85181825    -0.15300
F2318       F  0.28226628  0.84771581  0.88132115    -0.12900
C2319       C  0.42998645  0.76014930  0.78083889     0.25100
C2320       C  0.41860114  0.74209486  0.77878989    -0.23000
C2321       C  0.40820948  0.73842334  0.76038636     0.20000
C2322       C  0.40898525  0.75259100  0.74454105     0.25000
C2323       C  0.42002299  0.77084709  0.74679429    -0.23000
C2324       C  0.43064362  0.77433557  0.76510436     0.19900
F2325       F  0.44149427  0.79169137  0.76804772    -0.12900
F2326       F  0.44044606  0.76428540  0.79818741    -0.15300
F2327       F  0.39869112  0.74847759  0.72709686    -0.15300
F2328       F  0.39696728  0.72126684  0.75776852    -0.12900
C2329       C  0.37393197  0.63983454  0.80867736     0.25100
C2330       C  0.38151946  0.64782823  0.82703462    -0.23000
C2331       C  0.37560942  0.63853429  0.84533461     0.20000
C2332       C  0.36132438  0.62263132  0.84534132     0.25000
C2333       C  0.35249306  0.61576602  0.82706120    -0.23000
C2334       C  0.35954037  0.62407149  0.80868952     0.19900
F2335       F  0.35200169  0.61745884  0.79064351    -0.12900
F2336       F  0.37993030  0.64766812  0.79061587    -0.15300
F2337       F  0.35541243  0.61469985  0.86338532    -0.15300
F2338       F  0.38288752  0.64541964  0.86337642    -0.12900
C2339       C  0.38586847  0.74228537  0.88537761     0.25100
C2340       C  0.37966524  0.73771584  0.86539638    -0.23000
C2341       C  0.36172939  0.74667582  0.85775174     0.20000
C2342       C  0.35030078  0.75985859  0.86967115     0.25000
C2343       C  0.35641061  0.76445239  0.88964160    -0.23000
C2344       C  0.37434358  0.75550720  0.89738553     0.19900
F2345       F  0.38073673  0.75943697  0.91660311    -0.12900
F2346       F  0.40314589  0.73409404  0.89332465    -0.15300
F2347       F  0.33315314  0.76810259  0.86150207    -0.15300
F2348       F  0.35509810  0.74274200  0.83861552    -0.12900
C2349       C  0.99054006  0.65552422  0.81098775     0.25100
C2350       C  0.97991406  0.67320592  0.81654284    -0.23000
C2351       C  0.99117267  0.69016341  0.82327412     0.20000
C2352       C  0.01250202  0.68988553  0.82336642     0.25000
C2353       C  0.02316810  0.67263061  0.81675439    -0.23000
C2354       C  0.01195249  0.65522791  0.81114158     0.19900
F2355       F  0.02165508  0.63810119  0.80513587    -0.12900
F2356       F  0.98028507  0.63871262  0.80468226    -0.15300
F2357       F  0.02264349  0.70703510  0.82888329    -0.15300
F2358       F  0.98162529  0.70753722  0.82878769    -0.12900
C2359       C  0.87475562  0.60926939  0.75356091     0.25100
C2360       C  0.85793307  0.61733930  0.74300479    -0.23000
C2361       C  0.85316596  0.63797423  0.74543891     0.20000
C2362       C  0.86508641  0.65033325  0.75803169     0.25000
C2363       C  0.88197969  0.64228646  0.76859127    -0.23000
C2364       C  0.88662921  0.62159219  0.76625947     0.19900
F2365       F  0.90257248  0.61314725  0.77639406    -0.12900
F2366       F  0.87946560  0.58929895  0.75200182    -0.15300
F2367       F  0.86012342  0.67024393  0.75967540    -0.15300
F2368       F  0.83714196  0.64635195  0.73535431    -0.12900
C2369       C  0.82101474  0.68892051  0.99436345     0.25100
C2370       C  0.81191402  0.67279985  0.98356140    -0.23000
C2371       C  0.80334214  0.65656774  0.99456075     0.20000
C2372       C  0.80290826  0.65699861  0.01579022     0.25000
C2373       C  0.81090202  0.67373904  0.02652897    -0.23000
C2374       C  0.82032168  0.68949194  0.01554631     0.19900
F2375       F  0.82816360  0.70597415  0.02520256    -0.12900
F2376       F  0.82988831  0.70467571  0.98444718    -0.15300
F2377       F  0.79386103  0.64135523  0.02573871    -0.15300
F2378       F  0.79461043  0.64057660  0.98481582    -0.12900
C2379       C  0.85938832  0.69890073  0.87837593     0.25100
C2380       C  0.85329511  0.68054263  0.88749601    -0.23000
C2381       C  0.86327252  0.66253909  0.88182943     0.20000
C2382       C  0.87812976  0.66273295  0.86661099     0.25000
C2383       C  0.88334640  0.68093164  0.85665749    -0.23000
C2384       C  0.87417986  0.69908888  0.86312636     0.19900
F2385       F  0.87886969  0.71703900  0.85416102    -0.12900
F2386       F  0.85034611  0.71666887  0.88346906    -0.15300
F2387       F  0.88680605  0.64489971  0.86112647    -0.15300
F2388       F  0.85823055  0.64455238  0.89053187    -0.12900
C2389       C  0.76060797  0.56431261  0.78061456     0.25100
C2390       C  0.74291352  0.57614629  0.77795390    -0.23000
C2391       C  0.74067093  0.58741804  0.75996167     0.20000
C2392       C  0.75588213  0.58716298  0.74516184     0.25000
C2393       C  0.77378841  0.57573227  0.74801914    -0.23000
C2394       C  0.77590171  0.56417951  0.76587128     0.19900
F2395       F  0.79296719  0.55302974  0.76936286    -0.12900
F2396       F  0.76342773  0.55316994  0.79770991    -0.15300
F2397       F  0.75326685  0.59866200  0.72828352    -0.15300
F2398       F  0.72399043  0.59920727  0.75682587    -0.12900
C2399       C  0.74735081  0.60968903  0.87887020     0.25100
C2400       C  0.73783172  0.61796381  0.86157992    -0.23000
C2401       C  0.74161383  0.63837335  0.85659582     0.20000
C2402       C  0.75450813  0.65027358  0.86866976     0.25000
C2403       C  0.76402044  0.64204468  0.88601540    -0.23000
C2404       C  0.76030250  0.62159613  0.89096408     0.19900
F2405       F  0.76922546  0.61301702  0.90747212    -0.12900
F2406       F  0.74444075  0.58993242  0.88393201    -0.15300
F2407       F  0.75749905  0.66996020  0.86336026    -0.15300
F2408       F  0.73262230  0.64700769  0.84014443    -0.12900
C2409       C  0.74325165  0.75711637  0.91239595     0.25100
C2410       C  0.72659700  0.75534086  0.92574049    -0.23000
C2411       C  0.72587064  0.73865173  0.93903489     0.20000
C2412       C  0.74115382  0.72390296  0.93872792     0.25000
C2413       C  0.75770141  0.72552615  0.92524527    -0.23000
C2414       C  0.75864711  0.74240343  0.91218112     0.19900
F2415       F  0.77420469  0.74449152  0.89879209    -0.12900
F2416       F  0.74443608  0.77280975  0.89912060    -0.15300
F2417       F  0.73954688  0.70789335  0.95157804    -0.15300
F2418       F  0.71024414  0.73641705  0.95232361    -0.12900
C2419       C  0.68134129  0.82117794  0.99452255     0.25100
C2420       C  0.66846489  0.80785100  0.98368818    -0.23000
C2421       C  0.65491664  0.79534872  0.99456510     0.20000
C2422       C  0.65543659  0.79495313  0.01576546     0.25000
C2423       C  0.66910951  0.80748682  0.02664824    -0.23000
C2424       C  0.68161303  0.82105495  0.01576634     0.19900
F2425       F  0.69469531  0.83372884  0.02561603    -0.12900
F2426       F  0.69413385  0.83397230  0.98456466    -0.15300
F2427       F  0.64333839  0.78136449  0.02552566    -0.15300
F2428       F  0.64199291  0.78249032  0.98473000    -0.12900
C2429       C  0.50813189  0.67721791  0.81951878     0.25100
C2430       C  0.51985088  0.68916572  0.83291512    -0.23000
C2431       C  0.50970678  0.70087022  0.84760618     0.20000
C2432       C  0.48835456  0.70155677  0.84805074     0.25000
C2433       C  0.47664545  0.69055636  0.83382141    -0.23000
C2434       C  0.48678361  0.67790213  0.81996698     0.19900
F2435       F  0.47609355  0.66666480  0.80629169    -0.12900
F2436       F  0.51727788  0.66539798  0.80540249    -0.15300
F2437       F  0.47924265  0.71376924  0.86186432    -0.15300
F2438       F  0.52038171  0.71246931  0.86100916    -0.12900
C2439       C  0.62283274  0.63670889  0.84056671     0.25100
C2440       C  0.61696344  0.64601220  0.82223107    -0.23000
C2441       C  0.62558573  0.63900936  0.80402576     0.20000
C2442       C  0.64061045  0.62395678  0.80428768     0.25000
C2443       C  0.64763448  0.61581564  0.82278553    -0.23000
C2444       C  0.63801469  0.62181784  0.84084818     0.19900
F2445       F  0.64384000  0.61392579  0.85897776    -0.12900
F2446       F  0.61464907  0.64270073  0.85844883    -0.15300
F2447       F  0.64875243  0.61789381  0.78640571    -0.15300
F2448       F  0.61998959  0.64714987  0.78593404    -0.12900
C2449       C  0.61302226  0.73537583  0.88236774     0.25100
C2450       C  0.61776567  0.73324739  0.86166989    -0.23000
C2451       C  0.63450827  0.74406695  0.85376578     0.20000
C2452       C  0.64631086  0.75658554  0.86624434     0.25000
C2453       C  0.64163627  0.75868196  0.88691953    -0.23000
C2454       C  0.62481475  0.74802722  0.89485456     0.19900
F2455       F  0.61989627  0.74961603  0.91475871    -0.12900
F2456       F  0.59689216  0.72535258  0.89056964    -0.15300
F2457       F  0.66211660  0.76699225  0.85789411    -0.15300
F2458       F  0.63950149  0.74269098  0.83386292    -0.12900
C2459       C  0.65901445  0.85587256  0.87991906     0.25100
C2460       C  0.67740304  0.84775719  0.88753103    -0.23000
C2461       C  0.69604195  0.85567904  0.88041151     0.20000
C2462       C  0.69632526  0.87058205  0.86534318     0.25000
C2463       C  0.67797377  0.87792747  0.85692754    -0.23000
C2464       C  0.65929393  0.87078288  0.86477618     0.19900
F2465       F  0.64122006  0.87775270  0.85741847    -0.12900
F2466       F  0.64068660  0.84904660  0.88672857    -0.15300
F2467       F  0.71470237  0.87719102  0.85846309    -0.15300
F2468       F  0.71414878  0.84837903  0.88733337    -0.12900
C2469       C  0.56662831  0.77193877  0.76293077     0.25100
C2470       C  0.57761461  0.76878621  0.74492039    -0.23000
C2471       C  0.58744536  0.75005471  0.74202587     0.20000
C2472       C  0.58687282  0.73510737  0.75709195     0.25000
C2473       C  0.57658695  0.73861334  0.77544799    -0.23000
C2474       C  0.56614994  0.75706390  0.77801417     0.19900
F2475       F  0.55569685  0.76096100  0.79529979    -0.12900
F2476       F  0.55653224  0.78958496  0.76617989    -0.15300
F2477       F  0.59702511  0.71748267  0.75392500    -0.15300
F2478       F  0.59827105  0.74639104  0.72492133    -0.12900
C2479       C  0.51164392  0.80705724  0.67989485     0.25100
C2480       C  0.52278380  0.82275154  0.68941813    -0.23000
C2481       C  0.51192737  0.83922333  0.69758834     0.20000
C2482       C  0.49052307  0.83926752  0.69758161     0.25000
C2483       C  0.47938026  0.82273151  0.68965339    -0.23000
C2484       C  0.49019770  0.80701279  0.68005701     0.19900
F2485       F  0.48010124  0.79114604  0.67146931    -0.12900
F2486       F  0.52146554  0.79127269  0.67108692    -0.15300
F2487       F  0.48076227  0.85513970  0.70629607    -0.15300
F2488       F  0.52194328  0.85488564  0.70662657    -0.12900
C2489       C  0.61194369  0.87122115  0.74852777     0.25100
C2490       C  0.62000655  0.85337229  0.74008310    -0.23000
C2491       C  0.64035142  0.84809761  0.74466929     0.20000
C2492       C  0.65230946  0.86033390  0.75738444     0.25000
C2493       C  0.64416308  0.87804638  0.76606742    -0.23000
C2494       C  0.62388429  0.88342782  0.76133899     0.19900
F2495       F  0.61547983  0.90049395  0.76915543    -0.12900
F2496       F  0.59234642  0.87676725  0.74469610    -0.15300
F2497       F  0.67192969  0.85475962  0.76111438    -0.15300
F2498       F  0.64882517  0.83107809  0.73680858    -0.12900
C2499       C  0.93223585  0.73663606  0.72731415     0.25100
C2500       C  0.92361113  0.75584113  0.73090678    -0.23000
C2501       C  0.91528738  0.75990299  0.75010931     0.20000
C2502       C  0.91532075  0.74506066  0.76525085     0.25000
C2503       C  0.92337838  0.72567719  0.76147128    -0.23000
C2504       C  0.93199657  0.72169227  0.74236447     0.19900
F2505       F  0.93978333  0.70315424  0.73796465    -0.12900
F2506       F  0.94060282  0.73207693  0.70908639    -0.15300
F2507       F  0.90710917  0.74964666  0.78353228    -0.15300
F2508       F  0.90657919  0.77809409  0.75417468    -0.12900
C2509       C  0.99115026  0.82106962  0.68989257     0.25100
C2510       C  0.97968282  0.80962909  0.67583738    -0.23000
C2511       C  0.99006696  0.79897915  0.66054932     0.20000
C2512       C  0.01141099  0.79854373  0.66023096     0.25000
C2513       C  0.02288534  0.80873715  0.67520345    -0.23000
C2514       C  0.01253188  0.82069268  0.68953113     0.19900
F2515       F  0.02303628  0.83141358  0.70376247    -0.12900
F2516       F  0.98172817  0.83210287  0.70446203    -0.15300
F2517       F  0.02074781  0.78720802  0.64583846    -0.15300
F2518       F  0.97963161  0.78787167  0.64657062    -0.12900
C2519       C  0.84618011  0.69532334  0.51491180     0.25100
C2520       C  0.83056266  0.68521097  0.52559977    -0.23000
C2521       C  0.81530097  0.67492795  0.51449708     0.20000
C2522       C  0.81483981  0.67587546  0.49333375     0.25000
C2523       C  0.82951342  0.68727231  0.48270849    -0.23000
C2524       C  0.84560914  0.69642995  0.49368657     0.19900
F2525       F  0.86029702  0.70730419  0.48402317    -0.12900
F2526       F  0.86145772  0.70508975  0.52497740    -0.15300
F2527       F  0.79958247  0.66606462  0.48328804    -0.15300
F2528       F  0.80036355  0.66437831  0.52411101    -0.12900
C2529       C  0.80308689  0.63537343  0.62934100     0.25100
C2530       C  0.82172561  0.64301729  0.62182621    -0.23000
C2531       C  0.84010328  0.63512378  0.62964761     0.20000
C2532       C  0.83991686  0.62109584  0.64555028     0.25000
C2533       C  0.82133801  0.61438385  0.65394027    -0.23000
C2534       C  0.80289748  0.62123442  0.64523122     0.19900
F2535       F  0.78460006  0.61489659  0.65256709    -0.12900
F2536       F  0.78496150  0.64211243  0.62188592    -0.15300
F2537       F  0.85807555  0.61472602  0.65322693    -0.15300
F2538       F  0.85843087  0.64162060  0.62254778    -0.12900
C2539       C  0.87851767  0.74045500  0.61635445     0.25100
C2540       C  0.85988349  0.73251172  0.62347996    -0.23000
C2541       C  0.85293469  0.73853172  0.64273332     0.20000
C2542       C  0.86423318  0.75224395  0.65447950     0.25000
C2543       C  0.88284798  0.76022715  0.64734562    -0.23000
C2544       C  0.88985645  0.75415876  0.62813992     0.19900
F2545       F  0.90775608  0.76141208  0.62069414    -0.12900
F2546       F  0.88577309  0.73513599  0.59787234    -0.15300
F2547       F  0.85680851  0.75771212  0.67286102    -0.15300
F2548       F  0.83512872  0.73118471  0.65032104    -0.12900
C2549       C  0.76036513  0.90457006  0.75185423     0.25100
C2550       C  0.75894751  0.91784323  0.73518390    -0.23000
C2551       C  0.74313002  0.93224153  0.73476519     0.20000
C2552       C  0.72837964  0.93257682  0.74998106     0.25000
C2553       C  0.72913819  0.91860110  0.76610241    -0.23000
C2554       C  0.74564388  0.90499119  0.76719460     0.19900
F2555       F  0.74722333  0.89157623  0.78273476    -0.12900
F2556       F  0.77558544  0.89068234  0.75303453    -0.15300
F2557       F  0.71312624  0.94642610  0.74864500    -0.15300
F2558       F  0.74174538  0.94597847  0.71948565    -0.12900
C2559       C  0.86319516  0.87636033  0.66845925     0.25100
C2560       C  0.85182614  0.88012872  0.68614182    -0.23000
C2561       C  0.85643015  0.86903854  0.70378745     0.20000
C2562       C  0.87125802  0.85389582  0.70357820     0.25000
C2563       C  0.88205483  0.84943870  0.68573291    -0.23000
C2564       C  0.87821822  0.86120248  0.66827548     0.19900
F2565       F  0.88853709  0.85767898  0.65083034    -0.12900
F2566       F  0.85951920  0.88701354  0.65121230    -0.15300
F2567       F  0.87434310  0.84301784  0.72078703    -0.15300
F2568       F  0.84577745  0.87200837  0.72113464    -0.12900
C2569       C  0.76252821  0.76865752  0.56917950     0.25100
C2570       C  0.74605811  0.76792290  0.58280275    -0.23000
C2571       C  0.74483584  0.75170356  0.59663160     0.20000
C2572       C  0.75998917  0.73681134  0.59713729     0.25000
C2573       C  0.77661451  0.73771979  0.58371256    -0.23000
C2574       C  0.77761270  0.75371492  0.56961119     0.19900
F2575       F  0.79318927  0.75494300  0.55613778    -0.12900
F2576       F  0.76410898  0.78385273  0.55537272    -0.15300
F2577       F  0.75864226  0.72184653  0.61121481    -0.15300
F2578       F  0.72931072  0.75053286  0.61016269    -0.12900
C2579       C  0.70052492  0.84077234  0.51471318     0.25100
C2580       C  0.69242809  0.82387839  0.52507348    -0.23000
C2581       C  0.68286721  0.80841540  0.51372595     0.20000
C2582       C  0.68215308  0.80941096  0.49254425     0.25000
C2583       C  0.69121805  0.82576940  0.48213706    -0.23000
C2584       C  0.69996695  0.84168094  0.49351168     0.19900
F2585       F  0.70885674  0.85777140  0.48414856    -0.12900
F2586       F  0.70976832  0.85613114  0.52500090    -0.15300
F2587       F  0.67337151  0.79380343  0.48224236    -0.15300
F2588       F  0.67503558  0.79175143  0.52300740    -0.12900
C2589       C  0.64118481  0.83155218  0.62616699     0.25100
C2590       C  0.65332056  0.81425860  0.62295180    -0.23000
C2591       C  0.64937260  0.79674528  0.63453775     0.20000
C2592       C  0.63408200  0.79666822  0.64928531     0.25000
C2593       C  0.62227302  0.81411237  0.65291390    -0.23000
C2594       C  0.62576137  0.83144590  0.64088848     0.19900
F2595       F  0.61458398  0.84851582  0.64364087    -0.12900
F2596       F  0.64441029  0.84873158  0.61527883    -0.15300
F2597       F  0.63132122  0.77956691  0.66042919    -0.15300
F2598       F  0.66090064  0.77982454  0.63227389    -0.12900
C2599       C  0.74893251  0.84523022  0.64044803     0.25100
C2600       C  0.74150789  0.85257306  0.62178837    -0.23000
C2601       C  0.74647022  0.87250647  0.61589504     0.20000
C2602       C  0.75807572  0.88500782  0.62869381     0.25000
C2603       C  0.76499465  0.87779524  0.64760157    -0.23000
C2604       C  0.76043969  0.85770716  0.65322571     0.19900
F2605       F  0.76717202  0.84997554  0.67111996    -0.12900
F2606       F  0.74497489  0.82594060  0.64653158    -0.15300
F2607       F  0.76223213  0.90426917  0.62266070    -0.15300
F2608       F  0.74014113  0.87996409  0.59774432    -0.12900
C2609       C  0.34397224  0.00847461  0.80500275     0.25100
C2610       C  0.32792380  0.01910382  0.81433890    -0.23000
C2611       C  0.31255697  0.00798752  0.82430502     0.20000
C2612       C  0.31264148  0.98679279  0.82405169     0.25000
C2613       C  0.32811422  0.97613985  0.81386900    -0.23000
C2614       C  0.34403830  0.98722898  0.80472784     0.19900
F2615       F  0.35917155  0.97759865  0.79458606    -0.12900
F2616       F  0.35923416  0.01857810  0.79538995    -0.15300
F2617       F  0.29713825  0.97673956  0.83331820    -0.15300
F2618       F  0.29690137  0.01756930  0.83368972    -0.12900
C2619       C  0.34929318  0.13606687  0.76129727     0.25100
C2620       C  0.35689963  0.11762615  0.76896148    -0.23000
C2621       C  0.37680434  0.11162137  0.76374361     0.20000
C2622       C  0.38868605  0.12358035  0.75084246     0.25000
C2623       C  0.38096820  0.14184941  0.74296573    -0.23000
C2624       C  0.36121953  0.14806946  0.74849199     0.19900
F2625       F  0.35328243  0.16570467  0.74136771    -0.12900
F2626       F  0.33030856  0.14262667  0.76622356    -0.15300
F2627       F  0.40789966  0.11738310  0.74635192    -0.15300
F2628       F  0.38480157  0.09406692  0.77096856    -0.12900
C2629       C  0.34230699  0.18844013  0.99417206     0.25100
C2630       C  0.32462712  0.18294191  0.98321334    -0.23000
C2631       C  0.30739457  0.17598535  0.99392071     0.20000
C2632       C  0.30732453  0.17603619  0.01511214     0.25000
C2633       C  0.32457469  0.18283275  0.02604613    -0.23000
C2634       C  0.34234805  0.18815906  0.01534363     0.19900
F2635       F  0.35955875  0.19408192  0.02531902    -0.12900
F2636       F  0.35933464  0.19505052  0.98448974    -0.15300
F2637       F  0.28994596  0.17042168  0.02482523    -0.15300
F2638       F  0.29010868  0.17022865  0.98396632    -0.12900
C2639       C  0.33802173  0.12210915  0.86510973     0.25100
C2640       C  0.31952943  0.11468864  0.85692984    -0.23000
C2641       C  0.30098321  0.12162035  0.86508223     0.20000
C2642       C  0.30091662  0.13657989  0.88010907     0.25000
C2643       C  0.31937935  0.14498873  0.88730703    -0.23000
C2644       C  0.33794968  0.13713782  0.88009553     0.19900
F2645       F  0.35610792  0.14475372  0.88668335    -0.12900
F2646       F  0.35626048  0.11560637  0.85791466    -0.15300
F2647       F  0.28268958  0.14312840  0.88729790    -0.15300
F2648       F  0.28280901  0.11429776  0.85819985    -0.12900
C2649       C  0.41132850  0.25818680  0.76057969     0.25100
C2650       C  0.42167603  0.25491737  0.77904782    -0.23000
C2651       C  0.43279638  0.23685582  0.78163412     0.20000
C2652       C  0.43312362  0.22220494  0.76632163     0.25000
C2653       C  0.42217648  0.22517208  0.74811714    -0.23000
C2654       C  0.41157474  0.24349173  0.74529816     0.19900
F2655       F  0.40098273  0.24707700  0.72792876    -0.12900
F2656       F  0.40040165  0.27537159  0.75744938    -0.15300
F2657       F  0.44396176  0.20496552  0.76953355    -0.15300
F2658       F  0.44325438  0.23318945  0.79907773    -0.12900
C2659       C  0.38762692  0.25337695  0.88229154     0.25100
C2660       C  0.38041856  0.26027232  0.86336840    -0.23000
C2661       C  0.36108566  0.25371130  0.85653355     0.20000
C2662       C  0.34921672  0.24066102  0.86832226     0.25000
C2663       C  0.35636703  0.23377013  0.88727002    -0.23000
C2664       C  0.37574473  0.24024074  0.89409981     0.19900
F2665       F  0.38333596  0.23377768  0.91215675    -0.12900
F2666       F  0.40633748  0.25904360  0.88929388    -0.15300
F2667       F  0.33063270  0.23485765  0.86108275    -0.15300
F2668       F  0.35350417  0.25994674  0.83838646    -0.12900
C2669       C  0.15729354  0.50983615  0.69776179     0.25100
C2670       C  0.17520594  0.52067288  0.69285734    -0.23000
C2671       C  0.19249742  0.50973196  0.68657683     0.20000
C2672       C  0.19237526  0.48853310  0.68657980     0.25000
C2673       C  0.17498430  0.47767464  0.69294301    -0.23000
C2674       C  0.15722189  0.48856711  0.69792427     0.19900
F2675       F  0.13997958  0.47870562  0.70378675    -0.12900
F2676       F  0.14001698  0.51975374  0.70316786    -0.15300
F2677       F  0.20974818  0.47870816  0.68129409    -0.15300
F2678       F  0.20999833  0.51947915  0.68131854    -0.12900
C2679       C  0.14762236  0.36114272  0.74671063     0.25100
C2680       C  0.14146676  0.38080877  0.74110888    -0.23000
C2681       C  0.12248989  0.38801310  0.74799157     0.20000
C2682       C  0.11005624  0.37587393  0.76032590     0.25000
C2683       C  0.11627204  0.35621241  0.76592076    -0.23000
C2684       C  0.13514836  0.34898065  0.75881852     0.19900
F2685       F  0.14175539  0.33009027  0.76368431    -0.12900
F2686       F  0.16586311  0.35357621  0.74062501    -0.15300
F2687       F  0.09189648  0.38339249  0.76666813    -0.15300
F2688       F  0.11592434  0.40684683  0.74287185    -0.12900
C2689       C  0.25835643  0.27044286  0.93973700     0.25100
C2690       C  0.24111746  0.26854980  0.92700245    -0.23000
C2691       C  0.23915474  0.25118881  0.91473349     0.20000
C2692       C  0.25429089  0.23630048  0.91481021     0.25000
C2693       C  0.27169577  0.23835020  0.92724720    -0.23000
C2694       C  0.27342617  0.25543955  0.93994266     0.19900
F2695       F  0.28975549  0.25772923  0.95253318    -0.12900
F2696       F  0.26076633  0.28688066  0.95192439    -0.15300
F2697       F  0.25223413  0.22025994  0.90205642    -0.15300
F2698       F  0.22295833  0.24892869  0.90198286    -0.12900
C2699       C  0.17766726  0.30418627  0.99371609     0.25100
C2700       C  0.18434429  0.32110946  0.98248193    -0.23000
C2701       C  0.18976685  0.33895011  0.99297780     0.20000
C2702       C  0.19029705  0.33927009  0.01417826     0.25000
C2703       C  0.18534232  0.32178056  0.02538791    -0.23000
C2704       C  0.17812515  0.30453182  0.01493105     0.19900
F2705       F  0.17234130  0.28759532  0.02515636    -0.12900
F2706       F  0.17163473  0.28687404  0.98424942    -0.15300
F2707       F  0.19661027  0.35648159  0.02364699    -0.15300
F2708       F  0.19546909  0.35591548  0.98277091    -0.12900
C2709       C  0.13814110  0.33283268  0.87900129     0.25100
C2710       C  0.14730360  0.31434819  0.88456864    -0.23000
C2711       C  0.14042555  0.29637691  0.87517108     0.20000
C2712       C  0.12528039  0.29699280  0.86008702     0.25000
C2713       C  0.11664468  0.31560143  0.85400051    -0.23000
C2714       C  0.12293579  0.33343861  0.86400863     0.19900
F2715       F  0.11495370  0.35169347  0.85880707    -0.12900
F2716       F  0.14454663  0.35057492  0.88736258    -0.15300
F2717       F  0.11951324  0.27934835  0.85107691    -0.15300
F2718       F  0.14867947  0.27817558  0.88018109    -0.12900
C2719       C  0.23921549  0.43192715  0.78196859     0.25100
C2720       C  0.25695067  0.42011303  0.77993032    -0.23000
C2721       C  0.25962209  0.40866444  0.76214748     0.20000
C2722       C  0.24463603  0.40855860  0.74700458     0.25000
C2723       C  0.22660985  0.41988087  0.74930569    -0.23000
C2724       C  0.22416384  0.43173005  0.76687585     0.19900
F2725       F  0.20704449  0.44293392  0.76969567    -0.12900
F2726       F  0.23626474  0.44358130  0.79865763    -0.15300
F2727       F  0.24767988  0.39699118  0.73027755    -0.15300
F2728       F  0.27650276  0.39705838  0.75956442    -0.12900
C2729       C  0.31696207  0.48656972  0.81402521     0.25100
C2730       C  0.31224167  0.47581980  0.83186850    -0.23000
C2731       C  0.30885781  0.48680187  0.84980968     0.20000
C2732       C  0.30923275  0.50804472  0.84972373     0.25000
C2733       C  0.31266033  0.51883511  0.83161982    -0.23000
C2734       C  0.31710185  0.50781098  0.81387658     0.19900
F2735       F  0.32059477  0.51749124  0.79604759    -0.12900
F2736       F  0.32021131  0.47659477  0.79632720    -0.15300
F2737       F  0.30551721  0.51802111  0.86730374    -0.15300
F2738       F  0.30456930  0.47701542  0.86739560    -0.12900
C2739       C  0.36221965  0.37484920  0.84222409     0.25100
C2740       C  0.34988524  0.37827618  0.82501934    -0.23000
C2741       C  0.35375800  0.36706905  0.80727588     0.20000
C2742       C  0.36879815  0.35207876  0.80707670     0.25000
C2743       C  0.38047114  0.34795070  0.82457399    -0.23000
C2744       C  0.37742066  0.35992901  0.84196624     0.19900
F2745       F  0.38879796  0.35691395  0.85895422    -0.12900
F2746       F  0.35926113  0.38554313  0.85953355    -0.15300
F2747       F  0.37126430  0.34103424  0.78989876    -0.15300
F2748       F  0.34242263  0.36995231  0.79022641    -0.12900
C2749       C  0.25416737  0.35981267  0.85610652     0.25100
C2750       C  0.26121662  0.37859202  0.86361382    -0.23000
C2751       C  0.25492652  0.38480670  0.88302017     0.20000
C2752       C  0.24205096  0.37244133  0.89468982     0.25000
C2753       C  0.23513606  0.35360744  0.88718603    -0.23000
C2754       C  0.24130438  0.34752471  0.86770316     0.19900
F2755       F  0.23490567  0.32960285  0.85970941    -0.12900
F2756       F  0.25976389  0.35314065  0.83747906    -0.15300
F2757       F  0.23648312  0.37891553  0.91338713    -0.15300
F2758       F  0.26108379  0.40292991  0.89071500    -0.12900
C2759       C  0.15540138  0.30226560  0.51721266     0.25100
C2760       C  0.17148986  0.31119634  0.52837639    -0.23000
C2761       C  0.18693902  0.32158308  0.51773443     0.20000
C2762       C  0.18708473  0.32175777  0.49647498     0.25000
C2763       C  0.17163747  0.31177066  0.48528276    -0.23000
C2764       C  0.15541452  0.30265082  0.49596047     0.19900
F2765       F  0.13999521  0.29312573  0.48589247    -0.12900
F2766       F  0.14000473  0.29234154  0.52679191    -0.15300
F2767       F  0.20281081  0.33115118  0.48690132    -0.15300
F2768       F  0.20245360  0.33092520  0.52784843    -0.12900
C2769       C  0.16278693  0.36079833  0.63025021     0.25100
C2770       C  0.18099725  0.35125232  0.62429256    -0.23000
C2771       C  0.19966682  0.35824239  0.63248090     0.20000
C2772       C  0.19996517  0.37360849  0.64713385     0.25000
C2773       C  0.18159640  0.38231104  0.65392572    -0.23000
C2774       C  0.16308837  0.37615461  0.64483522     0.19900
F2775       F  0.14504252  0.38432602  0.65067770    -0.12900
F2776       F  0.14446471  0.35479206  0.62255386    -0.15300
F2777       F  0.21822019  0.37933930  0.65521989    -0.15300
F2778       F  0.21763712  0.34964945  0.62700538    -0.12900
C2779       C  0.08231105  0.23706320  0.74982580     0.25100
C2780       C  0.07414138  0.24093335  0.73042639    -0.23000
C2781       C  0.06560945  0.26011906  0.72646774     0.20000
C2782       C  0.06576577  0.27523062  0.74132124     0.25000
C2783       C  0.07468284  0.27164098  0.76043983    -0.23000
C2784       C  0.08269561  0.25228235  0.76461858     0.19900
F2785       F  0.09115885  0.24806589  0.78296555    -0.12900
F2786       F  0.09038906  0.21868443  0.75442478    -0.15300
F2787       F  0.05766277  0.29359159  0.73668520    -0.15300
F2788       F  0.05741766  0.26450982  0.70804152    -0.12900
C2789       C  0.10794830  0.24533619  0.63029695     0.25100
C2790       C  0.11568339  0.23603882  0.64794061    -0.23000
C2791       C  0.13579847  0.24059800  0.65417078     0.20000
C2792       C  0.14793849  0.25392668  0.64295992     0.25000
C2793       C  0.14032309  0.26304048  0.62516426    -0.23000
C2794       C  0.12011907  0.25872174  0.61906201     0.19900
F2795       F  0.11210382  0.26731694  0.60211324    -0.12900
F2796       F  0.08853856  0.24163124  0.62391315    -0.15300
F2797       F  0.16721763  0.25783998  0.64963924    -0.15300
F2798       F  0.14389780  0.23210094  0.67114269    -0.12900
C2799       C  0.23931902  0.22531962  0.57249281     0.25100
C2800       C  0.25537459  0.22560596  0.58679432    -0.23000
C2801       C  0.25650801  0.24178575  0.60069520     0.20000
C2802       C  0.24162263  0.25696421  0.60068386     0.25000
C2803       C  0.22536722  0.25644547  0.58663970    -0.23000
C2804       C  0.22451621  0.24056330  0.57240521     0.19900
F2805       F  0.20927047  0.23964933  0.55839055    -0.12900
F2806       F  0.23777095  0.21019670  0.55860187    -0.15300
F2807       F  0.24284322  0.27183461  0.61487475    -0.15300
F2808       F  0.27176299  0.24275211  0.61468675    -0.12900
C2809       C  0.30118235  0.15598639  0.51766885     0.25100
C2810       C  0.30946953  0.17230001  0.52879069    -0.23000
C2811       C  0.31892496  0.18830207  0.51815811     0.20000
C2812       C  0.31897953  0.18854233  0.49690870     0.25000
C2813       C  0.30964944  0.17274030  0.48580514    -0.23000
C2814       C  0.30119868  0.15624288  0.49647749     0.19900
F2815       F  0.29217450  0.14059224  0.48645078    -0.12900
F2816       F  0.29224361  0.14004943  0.52723557    -0.15300
F2817       F  0.32725913  0.20479984  0.48729149    -0.15300
F2818       F  0.32740301  0.20420810  0.52825785    -0.12900
C2819       C  0.35985688  0.16001827  0.62986653     0.25100
C2820       C  0.34999005  0.17817092  0.62432020    -0.23000
C2821       C  0.35654762  0.19643249  0.63334338     0.20000
C2822       C  0.37170947  0.19643794  0.64833543     0.25000
C2823       C  0.38092916  0.17820821  0.65460236    -0.23000
C2824       C  0.37519584  0.16004372  0.64480411     0.19900
F2825       F  0.38396455  0.14215358  0.65005370    -0.12900
F2826       F  0.35428930  0.14209402  0.62129953    -0.15300
F2827       F  0.37667787  0.21432514  0.65731276    -0.15300
F2828       F  0.34771498  0.21435088  0.62831641    -0.12900
C2829       C  0.23767393  0.08492729  0.75285749     0.25100
C2830       C  0.24082676  0.07585211  0.73383085    -0.23000
C2831       C  0.25957956  0.06618623  0.73005434     0.20000
C2832       C  0.27497272  0.06599340  0.74475636     0.25000
C2833       C  0.27204873  0.07554275  0.76358782    -0.23000
C2834       C  0.25310735  0.08473188  0.76759706     0.19900
F2835       F  0.24958862  0.09394829  0.78563709    -0.12900
F2836       F  0.21981851  0.09438551  0.75713783    -0.15300
F2837       F  0.29291157  0.05676993  0.74027766    -0.15300
F2838       F  0.26335155  0.05729789  0.71189461    -0.12900
C2839       C  0.17740208  0.98714455  0.69823254     0.25100
C2840       C  0.18450150  0.97653475  0.68113880    -0.23000
C2841       C  0.19012021  0.98766364  0.66380970     0.20000
C2842       C  0.18980948  0.00888400  0.66397402     0.25000
C2843       C  0.18402104  0.01952481  0.68152701    -0.23000
C2844       C  0.17721610  0.00837936  0.69844579     0.19900
F2845       F  0.17132464  0.01795482  0.71565915    -0.12900
F2846       F  0.17158961  0.97705380  0.71521360    -0.15300
F2847       F  0.19618336  0.01896280  0.64719478    -0.15300
F2848       F  0.19692685  0.97808955  0.64694201    -0.12900
C2849       C  0.13849659  0.12486022  0.70401462     0.25100
C2850       C  0.14708439  0.11759819  0.68588843    -0.23000
C2851       C  0.13949988  0.12506694  0.66730194     0.20000
C2852       C  0.12410468  0.13978631  0.66689480     0.25000
C2853       C  0.11611141  0.14758312  0.68505159    -0.23000
C2854       C  0.12324662  0.13968036  0.70359608     0.19900
F2855       F  0.11575293  0.14656487  0.72146120    -0.12900
F2856       F  0.14522106  0.11807155  0.72228762    -0.15300
F2857       F  0.11782728  0.14715328  0.64869033    -0.15300
F2858       F  0.14755880  0.11881950  0.64944952    -0.12900
C2859       C  0.24563528  0.13252361  0.65835515     0.25100
C2860       C  0.23733725  0.11422824  0.65093931    -0.23000
C2861       C  0.24213798  0.10813942  0.63106442     0.20000
C2862       C  0.25414468  0.12055925  0.61859071     0.25000
C2863       C  0.26180378  0.13920795  0.62581743    -0.23000
C2864       C  0.25760866  0.14487663  0.64594400     0.19900
F2865       F  0.26511023  0.16245021  0.65377484    -0.12900
F2866       F  0.24226602  0.13856706  0.67772613    -0.15300
F2867       F  0.25790433  0.11445837  0.59932243    -0.15300
F2868       F  0.23505648  0.09026610  0.62355088    -0.12900
C2869       C  0.81746857  0.00808801  0.69583726     0.25100
C2870       C  0.80806098  0.01871439  0.67981537    -0.23000
C2871       C  0.79989925  0.00763506  0.66340256     0.20000
C2872       C  0.80017186  0.98643131  0.66352336     0.25000
C2873       C  0.80868425  0.97579692  0.68001793    -0.23000
C2874       C  0.81765734  0.98688340  0.69600053     0.19900
F2875       F  0.82567011  0.97727300  0.71240046    -0.12900
F2876       F  0.82568757  0.01813559  0.71190306    -0.15300
F2877       F  0.79136218  0.97635635  0.64778042    -0.15300
F2878       F  0.79090003  0.01724012  0.64750947    -0.12900
C2879       C  0.69053596  0.15549679  0.51470029     0.25100
C2880       C  0.68608885  0.17318719  0.52577138    -0.23000
C2881       C  0.68021652  0.19075234  0.51512959     0.20000
C2882       C  0.68014808  0.19105101  0.49396282     0.25000
C2883       C  0.68608190  0.17383819  0.48287900    -0.23000
C2884       C  0.69045235  0.15579475  0.49345946     0.19900
F2885       F  0.69539182  0.13859397  0.48331924    -0.12900
F2886       F  0.69565822  0.13805356  0.52437935    -0.15300
F2887       F  0.67532087  0.20864254  0.48439897    -0.15300
F2888       F  0.67576086  0.20815945  0.52513201    -0.12900
C2889       C  0.74381254  0.12208885  0.61475322     0.25100
C2890       C  0.73559745  0.14029957  0.62225055    -0.23000
C2891       C  0.74012195  0.14606659  0.64231101     0.20000
C2892       C  0.75235699  0.13391377  0.65465630     0.25000
C2893       C  0.76046304  0.11559954  0.64733403    -0.23000
C2894       C  0.75613763  0.10985282  0.62717041     0.19900
F2895       F  0.76391212  0.09248500  0.61936112    -0.12900
F2896       F  0.74024151  0.11625820  0.59531367    -0.15300
F2897       F  0.75610692  0.14015569  0.67393034    -0.15300
F2898       F  0.73251021  0.16346223  0.65022431    -0.12900
C2899       C  0.71888356  0.06739785  0.74506499     0.25100
C2900       C  0.72431211  0.07301807  0.76497462    -0.23000
C2901       C  0.74473232  0.07839879  0.76915541     0.20000
C2902       C  0.75920633  0.07892329  0.75361692     0.25000
C2903       C  0.75361877  0.07390576  0.73358309    -0.23000
C2904       C  0.73336206  0.06777425  0.72958798     0.19900
F2905       F  0.72729466  0.06260359  0.71056299    -0.12900
F2906       F  0.69940309  0.06191769  0.74035169    -0.15300
F2907       F  0.77863365  0.08464017  0.75821315    -0.15300
F2908       F  0.75068870  0.08358427  0.78821031    -0.12900
C2909       C  0.65891526  0.00654835  0.80398740     0.25100
C2910       C  0.67047332  0.01706435  0.81867004    -0.23000
C2911       C  0.68131395  0.00584303  0.83333391     0.20000
C2912       C  0.68128001  0.98455160  0.83273821     0.25000
C2913       C  0.67037247  0.97410562  0.81748482    -0.23000
C2914       C  0.65874713  0.98537725  0.80348614     0.19900
F2915       F  0.64822395  0.97600358  0.78834749    -0.12900
F2916       F  0.64892068  0.01672664  0.78906518    -0.15300
F2917       F  0.69234083  0.97420471  0.84677493    -0.15300
F2918       F  0.69231646  0.01545199  0.84797683    -0.12900
C2919       C  0.51085675  0.15483546  0.70610925     0.25100
C2920       C  0.52204866  0.17019661  0.69624972    -0.23000
C2921       C  0.51127931  0.18516863  0.68536949     0.20000
C2922       C  0.48987668  0.18533951  0.68521041     0.25000
C2923       C  0.47871824  0.17048831  0.69583808    -0.23000
C2924       C  0.48948188  0.15499276  0.70592863     0.19900
F2925       F  0.47938979  0.14039328  0.71645260    -0.12900
F2926       F  0.52052665  0.14008868  0.71679604    -0.15300
F2927       F  0.48014639  0.20065336  0.67540738    -0.15300
F2928       F  0.52139600  0.20018300  0.67547808    -0.12900
C2929       C  0.62893008  0.19683454  0.65020608     0.25100
C2930       C  0.62010512  0.17840880  0.65662934    -0.23000
C2931       C  0.62547949  0.16043364  0.64646148     0.20000
C2932       C  0.64001699  0.16075967  0.63091922     0.25000
C2933       C  0.64944748  0.17907891  0.62508018    -0.23000
C2934       C  0.64340221  0.19716536  0.63465240     0.19900
F2935       F  0.65180715  0.21524125  0.62930737    -0.12900
F2936       F  0.62390557  0.21461621  0.65924705    -0.15300
F2937       F  0.64552287  0.14293735  0.62226175    -0.15300
F2938       F  0.61729869  0.14233903  0.65204716    -0.12900
C2939       C  0.61300850  0.11991324  0.75058439     0.25100
C2940       C  0.61864338  0.14020307  0.74677347    -0.23000
C2941       C  0.63581907  0.14826240  0.75698305     0.20000
C2942       C  0.64726681  0.13625352  0.77031416     0.25000
C2943       C  0.64172354  0.11593025  0.77397380    -0.23000
C2944       C  0.62428135  0.10800147  0.76418939     0.19900
F2945       F  0.61834045  0.08851670  0.76739284    -0.12900
F2946       F  0.59664271  0.11144789  0.74105856    -0.15300
F2947       F  0.66376607  0.14464077  0.77971038    -0.15300
F2948       F  0.64170209  0.16781007  0.75404826    -0.12900
C2949       C  0.98584063  0.17726132  0.69417504     0.25100
C2950       C  0.97467055  0.18552045  0.67786515    -0.23000
C2951       C  0.98539607  0.19240091  0.66070818     0.20000
C2952       C  0.00679862  0.19239240  0.66048290     0.25000
C2953       C  0.01797580  0.18530952  0.67734319    -0.23000
C2954       C  0.00721103  0.17704147  0.69385502     0.19900
F2955       F  0.01732967  0.16950603  0.71020405    -0.12900
F2956       F  0.97618457  0.17016113  0.71092230    -0.15300
F2957       F  0.01649941  0.20020878  0.64408206    -0.15300
F2958       F  0.97524091  0.20003414  0.64442999    -0.12900
C2959       C  0.86990511  0.13913935  0.70522191     0.25100
C2960       C  0.87718892  0.14685078  0.68667352    -0.23000
C2961       C  0.87011209  0.13802193  0.66851654     0.20000
C2962       C  0.85528377  0.12268975  0.66881930     0.25000
C2963       C  0.84713724  0.11577397  0.68728408    -0.23000
C2964       C  0.85505763  0.12375106  0.70552390     0.19900
F2965       F  0.84819906  0.11694104  0.72370014    -0.12900
F2966       F  0.87683831  0.14672864  0.72312280    -0.15300
F2967       F  0.84816976  0.11537856  0.65088258    -0.15300
F2968       F  0.87679358  0.14485638  0.65029923    -0.12900
C2969       C  0.73680356  0.24547750  0.58715607     0.25100
C2970       C  0.74180616  0.22552182  0.58145581    -0.23000
C2971       C  0.76184906  0.22143285  0.57500810     0.20000
C2972       C  0.77660640  0.23678618  0.57463600     0.25000
C2973       C  0.77182330  0.25657867  0.58102438    -0.23000
C2974       C  0.75167279  0.26081812  0.58701802     0.19900
F2975       F  0.74633162  0.27977268  0.59296191    -0.12900
F2976       F  0.71760831  0.25014706  0.59326100    -0.15300
F2977       F  0.79578110  0.23201483  0.56852674    -0.15300
F2978       F  0.76743371  0.20242597  0.56944610    -0.12900
C2979       C  0.84401906  0.30854868  0.51487780     0.25100
C2980       C  0.82600609  0.31371307  0.52526351    -0.23000
C2981       C  0.80888599  0.32003863  0.51392686     0.20000
C2982       C  0.80922505  0.31977413  0.49278709     0.25000
C2983       C  0.82672248  0.31328052  0.48238113    -0.23000
C2984       C  0.84435409  0.30828291  0.49362621     0.19900
F2985       F  0.86169615  0.30236403  0.48411784    -0.12900
F2986       F  0.86100701  0.30272061  0.52520358    -0.15300
F2987       F  0.79183882  0.32460765  0.48258334    -0.15300
F2988       F  0.79130141  0.32554140  0.52323065    -0.12900
C2989       C  0.87066370  0.25064756  0.61362605     0.25100
C2990       C  0.85420973  0.26161548  0.62178069    -0.23000
C2991       C  0.84976705  0.25937973  0.64253091     0.20000
C2992       C  0.86159363  0.24671728  0.65485160     0.25000
C2993       C  0.87808742  0.23576858  0.64674489    -0.23000
C2994       C  0.88250359  0.23792542  0.62597372     0.19900
F2995       F  0.89823426  0.22765667  0.61749374    -0.12900
F2996       F  0.87524042  0.25202822  0.59362357    -0.15300
F2997       F  0.85695150  0.24543053  0.67484841    -0.15300
F2998       F  0.83399234  0.26954567  0.65107499    -0.12900
C2999       C  0.68705736  0.17726488  0.99245275     0.25100
C3000       C  0.67402668  0.19028937  0.98152582    -0.23000
C3001       C  0.65978488  0.20203126  0.99226287     0.20000
C3002       C  0.65931626  0.20157988  0.01343251     0.25000
C3003       C  0.67314470  0.18945741  0.02442110    -0.23000
C3004       C  0.68657489  0.17680610  0.01367637     0.19900
F3005       F  0.69968465  0.16437600  0.02368611    -0.12900
F3006       F  0.70073369  0.16538153  0.98266493    -0.15300
F3007       F  0.64604092  0.21396766  0.02314068    -0.15300
F3008       F  0.64701662  0.21491674  0.98239339    -0.12900
C3009       C  0.66424492  0.13912354  0.88113185     0.25100
C3010       C  0.68283921  0.14848867  0.88658461    -0.23000
C3011       C  0.70112919  0.14102969  0.87836097     0.20000
C3012       C  0.70077399  0.12504255  0.86444677     0.25000
C3013       C  0.68211034  0.11610568  0.85846169    -0.23000
C3014       C  0.66388288  0.12312604  0.86722532     0.19900
F3015       F  0.64551165  0.11526859  0.86157712    -0.12900
F3016       F  0.64622098  0.14607582  0.88844126    -0.15300
F3017       F  0.71872938  0.11875475  0.85641398    -0.15300
F3018       F  0.71941529  0.14946974  0.88342639    -0.12900
C3019       C  0.56633221  0.23825994  0.78073282     0.25100
C3020       C  0.57586046  0.25705512  0.77686412    -0.23000
C3021       C  0.58468026  0.26037410  0.75772660     0.20000
C3022       C  0.58511787  0.24482827  0.74328537     0.25000
C3023       C  0.57661492  0.22566467  0.74762485    -0.23000
C3024       C  0.56664056  0.22279846  0.76626794     0.19900
F3025       F  0.55752520  0.20483443  0.77080173    -0.12900
F3026       F  0.55716442  0.23451045  0.79877780    -0.15300
F3027       F  0.59440210  0.24844092  0.72528084    -0.15300
F3028       F  0.59341872  0.27849025  0.75311046    -0.12900
C3029       C  0.51091120  0.29706174  0.84693701     0.25100
C3030       C  0.52145006  0.30947678  0.83306183    -0.23000
C3031       C  0.51006120  0.32242979  0.82036523     0.20000
C3032       C  0.48863582  0.32214342  0.82078822     0.25000
C3033       C  0.47814878  0.30876906  0.83377884    -0.23000
C3034       C  0.48955468  0.29669253  0.84726966     0.19900
F3035       F  0.48011221  0.28351600  0.86001569    -0.12900
F3036       F  0.52119234  0.28424274  0.85941534    -0.15300
F3037       F  0.47818212  0.33454799  0.80802885    -0.15300
F3038       F  0.51959859  0.33493136  0.80703958    -0.12900
C3039       C  0.65068369  0.24091079  0.86335851     0.25100
C3040       C  0.64449771  0.23528600  0.88300064    -0.23000
C3041       C  0.62584994  0.24272905  0.89042648     0.20000
C3042       C  0.61387093  0.25578674  0.87869011     0.25000
C3043       C  0.62007518  0.26151009  0.85910793    -0.23000
C3044       C  0.63862843  0.25388803  0.85155708     0.19900
F3045       F  0.64533789  0.25917188  0.83283200    -0.12900
F3046       F  0.66843031  0.23387959  0.85547677    -0.15300
F3047       F  0.59614191  0.26280560  0.88659570    -0.15300
F3048       F  0.61923735  0.23763435  0.90922684    -0.12900
C3049       C  0.73847403  0.27897117  0.93150997     0.25100
C3050       C  0.75916656  0.27419018  0.92862544    -0.23000
C3051       C  0.76459833  0.25388880  0.92483455     0.20000
C3052       C  0.74956452  0.23873383  0.92385660     0.25000
C3053       C  0.72882987  0.24364305  0.92652173    -0.23000
C3054       C  0.72351692  0.26392520  0.93045071     0.19900
F3055       F  0.70369968  0.26946436  0.93273915    -0.12900
F3056       F  0.73248393  0.29840316  0.93466221    -0.15300
F3057       F  0.75532972  0.21934113  0.92009374    -0.15300
F3058       F  0.78441351  0.24867672  0.92185474    -0.12900
C3059       C  0.80557455  0.34393391  0.99756935     0.25100
C3060       C  0.81420648  0.32772679  0.98670637    -0.23000
C3061       C  0.82412662  0.31220727  0.99759243     0.20000
C3062       C  0.82401927  0.31210114  0.01881219     0.25000
C3063       C  0.81384535  0.32741643  0.02963611    -0.23000
C3064       C  0.80534361  0.34375459  0.01877786     0.19900
F3065       F  0.79587231  0.35915550  0.02858756    -0.12900
F3066       F  0.79637016  0.35953323  0.98772480    -0.15300
F3067       F  0.83318857  0.29650045  0.02869383    -0.15300
F3068       F  0.83325282  0.29661732  0.98776037    -0.12900
C3069       C  0.67626832  0.51043190  0.81956510     0.25100
C3070       C  0.68712632  0.52162724  0.83427816    -0.23000
C3071       C  0.69661339  0.51113985  0.85033959     0.20000
C3072       C  0.69692080  0.48993169  0.85059412     0.25000
C3073       C  0.68761157  0.47870923  0.83487579    -0.23000
C3074       C  0.67649524  0.48920371  0.81986297     0.19900
F3075       F  0.66665417  0.47900982  0.80481561    -0.12900
F3076       F  0.66620706  0.51996992  0.80426753    -0.15300
F3077       F  0.70730475  0.48047580  0.86572610    -0.15300
F3078       F  0.70661695  0.52133896  0.86529068    -0.12900
C3079       C  0.64106551  0.37383007  0.84380731     0.25100
C3080       C  0.65004716  0.38097016  0.82580162    -0.23000
C3081       C  0.64307637  0.37303412  0.80716307     0.20000
C3082       C  0.62805117  0.35786794  0.80658839     0.25000
C3083       C  0.61965697  0.35013170  0.82463155    -0.23000
C3084       C  0.62614258  0.35853349  0.84324535     0.19900
F3085       F  0.61862174  0.35148573  0.86106118    -0.12900
F3086       F  0.64715456  0.38116119  0.86210248    -0.15300
F3087       F  0.62219336  0.35037249  0.78828655    -0.15300
F3088       F  0.65121552  0.37946605  0.78938369    -0.12900
C3089       C  0.74433000  0.36367370  0.85952451     0.25100
C3090       C  0.73892893  0.38337508  0.86561451    -0.23000
C3091       C  0.74664170  0.39081443  0.88417362     0.20000
C3092       C  0.75973418  0.37888379  0.89615619     0.25000
C3093       C  0.76528047  0.35923207  0.88986825    -0.23000
C3094       C  0.75736595  0.35183328  0.87139489     0.19900
F3095       F  0.76219959  0.33300989  0.86464935    -0.12900
F3096       F  0.73673835  0.35559108  0.84210886    -0.15300
F3097       F  0.76686361  0.38657166  0.91393360    -0.15300
F3098       F  0.74172318  0.40970341  0.89066782    -0.12900
C3099       C  0.92961336  0.27412177  0.74292672     0.25100
C3100       C  0.91902826  0.27112324  0.76121161    -0.23000
C3101       C  0.90962885  0.25223044  0.76479900     0.20000
C3102       C  0.91000258  0.23702501  0.75005493     0.25000
C3103       C  0.91965844  0.24041605  0.73133062    -0.23000
C3104       C  0.92994824  0.25893482  0.72816190     0.19900
F3105       F  0.94008700  0.26258041  0.71061810    -0.12900
F3106       F  0.93948944  0.29186459  0.73914879    -0.15300
F3107       F  0.90041346  0.21916589  0.75399276    -0.15300
F3108       F  0.89950070  0.24858326  0.78234582    -0.12900
C3109       C  0.98659323  0.30725010  0.82176104     0.25100
C3110       C  0.97547969  0.32418206  0.81489196    -0.23000
C3111       C  0.98629460  0.34189456  0.80953822     0.20000
C3112       C  0.00773495  0.34211191  0.80955370     0.25000
C3113       C  0.01881305  0.32466653  0.81510706    -0.23000
C3114       C  0.00795178  0.30751862  0.82192987     0.19900
F3115       F  0.01794390  0.29049749  0.82786682    -0.12900
F3116       F  0.97687749  0.28996033  0.82749184    -0.15300
F3117       F  0.01757563  0.35920451  0.80345430    -0.15300
F3118       F  0.97617036  0.35884969  0.80363448    -0.12900
C3119       C  0.86842572  0.29854962  0.86052016     0.25100
C3120       C  0.88026248  0.31581883  0.85594779    -0.23000
C3121       C  0.87851170  0.33308904  0.86836705     0.20000
C3122       C  0.86434220  0.33352336  0.88417883     0.25000
C3123       C  0.85177478  0.31662156  0.88806779    -0.23000
C3124       C  0.85447692  0.29889240  0.87647744     0.19900
F3125       F  0.84301601  0.28204022  0.87995952    -0.12900
F3126       F  0.86964022  0.28150787  0.84904035    -0.15300
F3127       F  0.86239525  0.35082985  0.89512270    -0.15300
F3128       F  0.88995276  0.34991613  0.86479131    -0.12900
C3129       C  0.75506898  0.40520708  0.74805677     0.25100
C3130       C  0.76897620  0.42134219  0.74567583    -0.23000
C3131       C  0.76801507  0.43789496  0.75913613     0.20000
C3132       C  0.75389866  0.43797253  0.77502248     0.25000
C3133       C  0.74042659  0.42152798  0.77774705    -0.23000
C3134       C  0.74091117  0.40533691  0.76385882     0.19900
F3135       F  0.72826948  0.38911686  0.76605472    -0.12900
F3136       F  0.75574545  0.38878259  0.73567670    -0.15300
F3137       F  0.75339927  0.45418914  0.78768873    -0.15300
F3138       F  0.78083353  0.45399730  0.75703589    -0.12900
C3139       C  0.84374301  0.48697059  0.70422698     0.25100
C3140       C  0.82851815  0.47686246  0.69286386    -0.23000
C3141       C  0.81544837  0.48840541  0.68044952     0.20000
C3142       C  0.81641629  0.50959936  0.68070178     0.25000
C3143       C  0.83040497  0.51975409  0.69346430    -0.23000
C3144       C  0.84470457  0.50819320  0.70449042     0.19900
F3145       F  0.85894197  0.51734923  0.71645552    -0.12900
F3146       F  0.85693478  0.47642463  0.71614037    -0.15300
F3147       F  0.80295203  0.52014806  0.66910632    -0.15300
F3148       F  0.80111048  0.47924409  0.66862079    -0.12900
C3149       C  0.79919244  0.37652337  0.64117419     0.25100
C3150       C  0.81730005  0.38235148  0.65128995    -0.23000
C3151       C  0.83588592  0.37366551  0.64507341     0.20000
C3152       C  0.83618630  0.35842352  0.63032902     0.25000
C3153       C  0.81793310  0.35162280  0.62115593    -0.23000
C3154       C  0.79950324  0.36129619  0.62631550     0.19900
F3155       F  0.78162058  0.35566134  0.61739847    -0.12900
F3156       F  0.78103337  0.38508911  0.64603346    -0.15300
F3157       F  0.85434863  0.34966606  0.62582510    -0.15300
F3158       F  0.85384949  0.37931445  0.65381924    -0.12900
C3159       C  0.84500118  0.36094244  0.74845309     0.25100
C3160       C  0.85160999  0.38053789  0.74298670    -0.23000
C3161       C  0.87022995  0.38783869  0.75094338     0.20000
C3162       C  0.88220012  0.37567419  0.76366106     0.25000
C3163       C  0.87590386  0.35585770  0.76865442    -0.23000
C3164       C  0.85701260  0.34873559  0.76108845     0.19900
F3165       F  0.85013399  0.32984524  0.76572013    -0.12900
F3166       F  0.82703346  0.35335601  0.74131235    -0.15300
F3167       F  0.90006708  0.38333254  0.77094084    -0.15300
F3168       F  0.87689271  0.40684937  0.74653309    -0.12900
loop_ 
_geom_bond_atom_site_label_1 
_geom_bond_atom_site_label_2 
_geom_bond_distance 
_geom_bond_site_symmetry_2 
_ccdc_geom_bond_type 
In1           O3   2.244       .  S
In1           O4   2.250       .  S
In1          O12   2.242       .  S
In1           O6   2.272       .  S
In1           O8   2.252       .  S
In1           O9   2.245       .  S
In1          O10   2.241       .  S
In1          O13   2.249       .  S
C2            O8   1.263       .  A
C2           O10   1.259       .  A
C2         C3130   1.482       .  S
O3           C11   1.260       .  A
O4           C11   1.262       .  A
C5           O12   1.259       .  A
C5            O6   1.262       .  A
C5         C3150   1.490       .  S
C7            O9   1.261       .  A
C7           O13   1.262       .  A
C7         C3140   1.485       .  S
C11        C3160   1.484       .  S
In14         O16   2.245       .  S
In14         O17   2.253       .  S
In14         O25   2.251       .  S
In14         O19   2.241       .  S
In14         O21   2.239       .  S
In14         O22   2.258       .  S
In14         O23   2.238       .  S
In14         O26   2.243       .  S
C15          O21   1.262       .  A
C15          O23   1.261       .  A
C15        C3100   1.480       .  S
O16          C24   1.259       .  A
O17          C24   1.262       .  A
C18          O25   1.260       .  A
C18          O19   1.259       .  A
C18        C3120   1.483       .  S
C20          O22   1.262       .  A
C20          O26   1.260       .  A
C20        C3110   1.487       .  S
C24        C3163   1.486       .  S
In27         O29   2.256       .  S
In27         O30   2.249       .  S
In27         O38   2.262       .  S
In27         O32   2.247       .  S
In27         O34   2.241       .  S
In27         O35   2.273       .  S
In27         O36   2.259       .  S
In27         O39   2.238       .  S
C28          O34   1.259       .  A
C28          O36   1.261       .  A
C28        C3133   1.481       .  S
O29          C37   1.260       .  A
O30          C37   1.260       .  A
C31          O38   1.261       .  A
C31          O32   1.258       .  A
C31        C3080   1.488       .  S
C33          O35   1.262       .  A
C33          O39   1.259       .  A
C33        C3090   1.487       .  S
C37        C3073   1.486       .  S
In40         O42   2.254       .  S
In40         O43   2.252       .  S
In40         O51   2.260       .  S
In40         O45   2.230       .  S
In40         O47   2.245       .  S
In40         O48   2.273       .  S
In40         O49   2.231       .  S
In40         O52   2.235       .  S
C41          O47   1.260       .  A
C41          O49   1.261       .  A
C41        C3050   1.478       .  S
O42          C50   1.259       .  A
O43          C50   1.260       .  A
C44          O51   1.262       .  A
C44          O45   1.256       .  A
C44        C3123   1.482       .  S
C46          O48   1.263       .  A
C46          O52   1.259       .  A
C46        C3093   1.488       .  S
C50        C3060   1.486       .  S
In53         O55   2.246       .  S
In53         O56   2.244       .  S
In53         O64   2.251       .  S
In53         O58   2.252       .  S
In53         O60   2.253       .  S
In53         O61   2.242       .  S
In53         O62   2.232       .  S
In53         O65   2.262       .  S
C54          O60   1.264       .  A
C54          O62   1.260       .  A
C54        C3020   1.483       .  S
O55          C63   1.260       .  A
O56          C63   1.262       .  A
C57          O64   1.260       .  A
C57          O58   1.262       .  A
C57        C3083   1.488       .  S
C59          O61   1.260       .  A
C59          O65   1.262       .  A
C59        C3030   1.487       .  S
C63        C3043   1.483       .  S
In66         O68   2.243       .  S
In66         O69   2.243       .  S
In66         O77   2.242       .  S
In66         O71   2.238       .  S
In66         O73   2.256       .  S
In66         O74   2.242       .  S
In66         O75   2.219       .  S
In66         O78   2.252       .  S
C67          O73   1.262       .  A
C67          O75   1.258       .  A
C67        C3053   1.479       .  S
O68          C76   1.261       .  A
O69          C76   1.262       .  A
C70          O77   1.261       .  A
C70          O71   1.261       .  A
C70        C3010   1.481       .  S
C72          O74   1.260       .  A
C72          O78   1.261       .  A
C72        C3000   1.484       .  S
C76        C3040   1.483       .  S
In79         O81   2.252       .  S
In79         O82   2.255       .  S
In79         O90   2.233       .  S
In79         O84   2.266       .  S
In79         O86   2.255       .  S
In79         O87   2.256       .  S
In79         O88   2.236       .  S
In79         O91   2.233       .  S
C80          O86   1.264       .  A
C80          O88   1.261       .  A
C80        C2990   1.486       .  S
O81          C89   1.261       .  A
O82          C89   1.261       .  A
C83          O90   1.258       .  A
C83          O84   1.262       .  A
C83        C2980   1.485       .  S
C85          O87   1.263       .  A
C85          O91   1.259       .  A
C85        C2973   1.483       .  S
C89        C3153   1.489       .  S
In92         O94   2.251       .  S
In92         O95   2.251       .  S
In92        O103   2.254       .  S
In92         O97   2.254       .  S
In92         O99   2.240       .  S
In92        O100   2.261       .  S
In92        O101   2.240       .  S
In92        O104   2.244       .  S
C93          O99   1.262       .  A
C93         O101   1.261       .  A
C93        C3103   1.481       .  S
O94         C102   1.260       .  A
O95         C102   1.260       .  A
C96         O103   1.260       .  A
C96          O97   1.259       .  A
C96        C2960   1.486       .  S
C98         O100   1.262       .  A
C98         O104   1.260       .  A
C98        C2993   1.487       .  S
C102       C2950   1.486       .  S
In105       O107   2.255       .  S
In105       O108   2.251       .  S
In105       O116   2.266       .  S
In105       O110   2.245       .  S
In105       O112   2.250       .  S
In105       O113   2.261       .  S
In105       O114   2.237       .  S
In105       O117   2.246       .  S
C106        O112   1.262       .  A
C106        O114   1.261       .  A
C106       C3023   1.483       .  S
O107        C115   1.260       .  A
O108        C115   1.260       .  A
C109        O116   1.261       .  A
C109        O110   1.259       .  A
C109       C2930   1.488       .  S
C111        O113   1.262       .  A
C111        O117   1.260       .  A
C111       C2940   1.488       .  S
C115       C2920   1.487       .  S
In118       O120   2.268       .  S
In118       O121   2.241       .  S
In118       O129   2.246       .  S
In118       O123   2.238       .  S
In118       O125   2.252       .  S
In118       O126   2.253       .  S
In118       O127   2.230       .  S
In118       O130   2.242       .  S
C119        O125   1.262       .  A
C119        O127   1.258       .  A
C119       C2900   1.481       .  S
O120        C128   1.261       .  A
O121        C128   1.259       .  A
C122        O129   1.262       .  A
C122        O123   1.260       .  A
C122       C3013   1.482       .  S
C124        O126   1.263       .  A
C124        O130   1.261       .  A
C124       C2943   1.485       .  S
C128       C2910   1.484       .  S
In131       O133   2.224       .  S
In131       O134   2.262       .  S
In131       O142   2.261       .  S
In131       O136   2.247       .  S
In131       O138   2.251       .  S
In131       O139   2.257       .  S
In131       O140   2.239       .  S
In131       O143   2.243       .  S
C132        O138   1.261       .  A
C132        O140   1.260       .  A
C132       C2970   1.484       .  S
O133        C141   1.260       .  A
O134        C141   1.263       .  A
C135        O142   1.262       .  A
C135        O136   1.259       .  A
C135       C2933   1.488       .  S
C137        O139   1.260       .  A
C137        O143   1.259       .  A
C137       C2880   1.484       .  S
C141       C2890   1.483       .  S
In144       O146   2.232       .  S
In144       O147   2.262       .  S
In144       O155   2.249       .  S
In144       O149   2.251       .  S
In144       O151   2.251       .  S
In144       O152   2.246       .  S
In144       O153   2.244       .  S
In144       O156   2.246       .  S
C145        O151   1.260       .  A
C145        O153   1.260       .  A
C145       C2903   1.483       .  S
O146        C154   1.260       .  A
O147        C154   1.262       .  A
C148        O155   1.261       .  A
C148        O149   1.260       .  A
C148       C2963   1.485       .  S
C150        O152   1.260       .  A
C150        O156   1.259       .  A
C150       C2870   1.483       .  S
C154       C2893   1.485       .  S
In157       O159   2.252       .  S
In157       O160   2.249       .  S
In157       O168   2.255       .  S
In157       O162   2.250       .  S
In157       O164   2.251       .  S
In157       O165   2.254       .  S
In157       O166   2.224       .  S
In157       O169   2.232       .  S
C158        O164   1.263       .  A
C158        O166   1.259       .  A
C158       C2830   1.480       .  S
O159        C167   1.260       .  A
O160        C167   1.261       .  A
C161        O168   1.261       .  A
C161        O162   1.261       .  A
C161       C2850   1.488       .  S
C163        O165   1.263       .  A
C163        O169   1.261       .  A
C163       C2860   1.484       .  S
C167       C2843   1.487       .  S
In170       O172   2.250       .  S
In170       O173   2.244       .  S
In170       O181   2.259       .  S
In170       O175   2.241       .  S
In170       O177   2.250       .  S
In170       O178   2.264       .  S
In170       O179   2.247       .  S
In170       O182   2.232       .  S
C171        O177   1.261       .  A
C171        O179   1.260       .  A
C171       C2800   1.485       .  S
O172        C180   1.261       .  A
O173        C180   1.262       .  A
C174        O181   1.261       .  A
C174        O175   1.260       .  A
C174       C2820   1.487       .  S
C176        O178   1.262       .  A
C176        O182   1.259       .  A
C176       C2863   1.484       .  S
C180       C2810   1.486       .  S
In183       O185   2.230       .  S
In183       O186   2.258       .  S
In183       O194   2.261       .  S
In183       O188   2.241       .  S
In183       O190   2.253       .  S
In183       O191   2.257       .  S
In183       O192   2.239       .  S
In183       O195   2.240       .  S
C184        O190   1.262       .  A
C184        O192   1.260       .  A
C184       C2780   1.484       .  S
O185        C193   1.259       .  A
O186        C193   1.263       .  A
C187        O194   1.262       .  A
C187        O188   1.260       .  A
C187       C2853   1.485       .  S
C189        O191   1.261       .  A
C189        O195   1.260       .  A
C189       C2953   1.486       .  S
C193       C2790   1.484       .  S
In196       O198   2.236       .  S
In196       O199   2.255       .  S
In196       O207   2.244       .  S
In196       O201   2.251       .  S
In196       O203   2.247       .  S
In196       O204   2.256       .  S
In196       O205   2.241       .  S
In196       O208   2.255       .  S
C197        O203   1.262       .  A
C197        O205   1.260       .  A
C197       C2803   1.482       .  S
O198        C206   1.259       .  A
O199        C206   1.263       .  A
C200        O207   1.260       .  A
C200        O201   1.260       .  A
C200       C2770   1.485       .  S
C202        O204   1.261       .  A
C202        O208   1.261       .  A
C202       C2760   1.490       .  S
C206       C2793   1.484       .  S
In209       O211   2.233       .  S
In209       O212   2.265       .  S
In209       O220   2.262       .  S
In209       O214   2.235       .  S
In209       O216   2.234       .  S
In209       O217   2.255       .  S
In209       O218   2.241       .  S
In209       O221   2.245       .  S
C210        O216   1.261       .  A
C210        O218   1.261       .  A
C210       C2720   1.479       .  S
O211        C219   1.259       .  A
O212        C219   1.264       .  A
C213        O220   1.262       .  A
C213        O214   1.259       .  A
C213       C2740   1.486       .  S
C215        O217   1.262       .  A
C215        O221   1.259       .  A
C215       C2730   1.485       .  S
C219       C2750   1.486       .  S
In222       O224   2.238       .  S
In222       O225   2.262       .  S
In222       O233   2.251       .  S
In222       O227   2.254       .  S
In222       O229   2.241       .  S
In222       O230   2.246       .  S
In222       O231   2.247       .  S
In222       O234   2.254       .  S
C223        O229   1.261       .  A
C223        O231   1.260       .  A
C223       C2690   1.481       .  S
O224        C232   1.259       .  A
O225        C232   1.262       .  A
C226        O233   1.261       .  A
C226        O227   1.260       .  A
C226       C2710   1.487       .  S
C228        O230   1.260       .  A
C228        O234   1.261       .  A
C228       C2700   1.486       .  S
C232       C2753   1.486       .  S
In235       O237   2.239       .  S
In235       O238   2.252       .  S
In235       O246   2.240       .  S
In235       O240   2.247       .  S
In235       O242   2.241       .  S
In235       O243   2.257       .  S
In235       O244   2.236       .  S
In235       O247   2.233       .  S
C236        O242   1.261       .  A
C236        O244   1.260       .  A
C236       C2723   1.480       .  S
O237        C245   1.261       .  A
O238        C245   1.261       .  A
C239        O246   1.261       .  A
C239        O240   1.260       .  A
C239       C2773   1.483       .  S
C241        O243   1.262       .  A
C241        O247   1.259       .  A
C241       C2680   1.484       .  S
C245       C2673   1.486       .  S
In248       O250   2.240       .  S
In248       O251   2.261       .  S
In248       O259   2.262       .  S
In248       O253   2.250       .  S
In248       O255   2.246       .  S
In248       O256   2.266       .  S
In248       O257   2.244       .  S
In248       O260   2.233       .  S
C249        O255   1.261       .  A
C249        O257   1.261       .  A
C249       C2783   1.483       .  S
O250        C258   1.260       .  A
O251        C258   1.261       .  A
C252        O259   1.261       .  A
C252        O253   1.259       .  A
C252       C2713   1.489       .  S
C254        O256   1.262       .  A
C254        O260   1.258       .  A
C254       C2683   1.485       .  S
C258       C3113   1.487       .  S
In261       O263   2.255       .  S
In261       O264   2.244       .  S
In261       O272   2.258       .  S
In261       O266   2.241       .  S
In261       O268   2.246       .  S
In261       O269   2.254       .  S
In261       O270   2.245       .  S
In261       O273   2.234       .  S
C262        O268   1.261       .  A
C262        O270   1.260       .  A
C262       C2650   1.483       .  S
O263        C271   1.260       .  A
O264        C271   1.260       .  A
C265        O272   1.261       .  A
C265        O266   1.260       .  A
C265       C2743   1.486       .  S
C267        O269   1.262       .  A
C267        O273   1.260       .  A
C267       C2660   1.483       .  S
C271       C3033   1.484       .  S
In274       O276   2.240       .  S
In274       O277   2.243       .  S
In274       O285   2.256       .  S
In274       O279   2.239       .  S
In274       O281   2.244       .  S
In274       O282   2.254       .  S
In274       O283   2.243       .  S
In274       O286   2.231       .  S
C275        O281   1.261       .  A
C275        O283   1.260       .  A
C275       C2693   1.480       .  S
O276        C284   1.260       .  A
O277        C284   1.261       .  A
C278        O285   1.262       .  A
C278        O279   1.260       .  A
C278       C2643   1.483       .  S
C280        O282   1.263       .  A
C280        O286   1.260       .  A
C280       C2663   1.483       .  S
C284       C2630   1.482       .  S
In287       O289   2.232       .  S
In287       O290   2.240       .  S
In287       O298   2.259       .  S
In287       O292   2.240       .  S
In287       O294   2.253       .  S
In287       O295   2.239       .  S
In287       O296   2.236       .  S
In287       O299   2.251       .  S
C288        O294   1.263       .  A
C288        O296   1.259       .  A
C288       C2653   1.483       .  S
O289        C297   1.260       .  A
O290        C297   1.262       .  A
C291        O298   1.261       .  A
C291        O292   1.261       .  A
C291       C2823   1.487       .  S
C293        O295   1.259       .  A
C293        O299   1.261       .  A
C293       C2923   1.485       .  S
C297       C2623   1.477       .  S
In300       O302   2.236       .  S
In300       O303   2.245       .  S
In300       O311   2.250       .  S
In300       O305   2.245       .  S
In300       O307   2.240       .  S
In300       O308   2.248       .  S
In300       O309   2.233       .  S
In300       O312   2.242       .  S
C301        O307   1.262       .  A
C301        O309   1.261       .  A
C301       C2833   1.480       .  S
O302        C310   1.259       .  A
O303        C310   1.262       .  A
C304        O311   1.260       .  A
C304        O305   1.260       .  A
C304       C2640   1.484       .  S
C306        O308   1.260       .  A
C306        O312   1.260       .  A
C306       C2610   1.484       .  S
C310       C2620   1.479       .  S
In313       O315   2.254       .  S
In313       O316   2.247       .  S
In313       O324   2.265       .  S
In313       O318   2.248       .  S
In313       O320   2.247       .  S
In313       O321   2.252       .  S
In313       O322   2.243       .  S
In313       O325   2.227       .  S
C314        O320   1.261       .  A
C314        O322   1.260       .  A
C314       C2570   1.481       .  S
O315        C323   1.261       .  A
O316        C323   1.259       .  A
C317        O324   1.261       .  A
C317        O318   1.260       .  A
C317       C2590   1.489       .  S
C319        O321   1.261       .  A
C319        O325   1.258       .  A
C319       C2600   1.479       .  S
C323       C2580   1.487       .  S
In326       O328   2.246       .  S
In326       O329   2.240       .  S
In326       O337   2.264       .  S
In326       O331   2.233       .  S
In326       O333   2.259       .  S
In326       O334   2.231       .  S
In326       O335   2.237       .  S
In326       O338   2.245       .  S
C327        O333   1.261       .  A
C327        O335   1.259       .  A
C327       C2550   1.483       .  S
O328        C336   1.261       .  A
O329        C336   1.260       .  A
C330        O337   1.261       .  A
C330        O331   1.260       .  A
C330       C2560   1.485       .  S
C332        O334   1.260       .  A
C332        O338   1.261       .  A
C332       C2603   1.479       .  S
C336       C2873   1.482       .  S
In339       O341   2.237       .  S
In339       O342   2.257       .  S
In339       O350   2.248       .  S
In339       O344   2.257       .  S
In339       O346   2.247       .  S
In339       O347   2.260       .  S
In339       O348   2.238       .  S
In339       O351   2.247       .  S
C340        O346   1.262       .  A
C340        O348   1.260       .  A
C340       C2573   1.480       .  S
O341        C349   1.259       .  A
O342        C349   1.263       .  A
C343        O350   1.261       .  A
C343        O344   1.260       .  A
C343       C2530   1.488       .  S
C345        O347   1.261       .  A
C345        O351   1.260       .  A
C345       C2520   1.487       .  S
C349       C2540   1.485       .  S
In352       O354   2.240       .  S
In352       O355   2.249       .  S
In352       O363   2.267       .  S
In352       O357   2.239       .  S
In352       O359   2.248       .  S
In352       O360   2.239       .  S
In352       O361   2.242       .  S
In352       O364   2.256       .  S
C353        O359   1.262       .  A
C353        O361   1.260       .  A
C353       C2500   1.483       .  S
O354        C362   1.260       .  A
O355        C362   1.262       .  A
C356        O363   1.261       .  A
C356        O357   1.259       .  A
C356       C2563   1.487       .  S
C358        O360   1.259       .  A
C358        O364   1.260       .  A
C358       C2510   1.483       .  S
C362       C2543   1.484       .  S
In365       O367   2.244       .  S
In365       O368   2.259       .  S
In365       O376   2.269       .  S
In365       O370   2.242       .  S
In365       O372   2.252       .  S
In365       O373   2.256       .  S
In365       O374   2.240       .  S
In365       O377   2.258       .  S
C366        O372   1.261       .  A
C366        O374   1.260       .  A
C366       C2470   1.483       .  S
O367        C375   1.259       .  A
O368        C375   1.262       .  A
C369        O376   1.262       .  A
C369        O370   1.259       .  A
C369       C2593   1.490       .  S
C371        O373   1.261       .  A
C371        O377   1.261       .  A
C371       C2480   1.491       .  S
C375       C2490   1.485       .  S
In378       O380   2.242       .  S
In378       O381   2.253       .  S
In378       O389   2.253       .  S
In378       O383   2.242       .  S
In378       O385   2.255       .  S
In378       O386   2.239       .  S
In378       O387   2.235       .  S
In378       O390   2.261       .  S
C379        O385   1.262       .  A
C379        O387   1.259       .  A
C379       C2553   1.483       .  S
O380        C388   1.260       .  A
O381        C388   1.262       .  A
C382        O389   1.261       .  A
C382        O383   1.261       .  A
C382       C2463   1.485       .  S
C384        O386   1.260       .  A
C384        O390   1.261       .  A
C384       C2913   1.485       .  S
C388       C2493   1.485       .  S
In391       O393   2.252       .  S
In391       O394   2.237       .  S
In391       O402   2.251       .  S
In391       O396   2.253       .  S
In391       O398   2.251       .  S
In391       O399   2.248       .  S
In391       O400   2.237       .  S
In391       O403   2.234       .  S
C392        O398   1.262       .  A
C392        O400   1.260       .  A
C392       C2473   1.483       .  S
O393        C401   1.261       .  A
O394        C401   1.258       .  A
C395        O402   1.260       .  A
C395        O396   1.260       .  A
C395       C2440   1.485       .  S
C397        O399   1.260       .  A
C397        O403   1.259       .  A
C397       C2450   1.480       .  S
C401       C2430   1.483       .  S
In404       O406   2.251       .  S
In404       O407   2.251       .  S
In404       O415   2.256       .  S
In404       O409   2.246       .  S
In404       O411   2.256       .  S
In404       O412   2.250       .  S
In404       O413   2.244       .  S
In404       O416   2.226       .  S
C405        O411   1.261       .  A
C405        O413   1.260       .  A
C405       C2410   1.485       .  S
O406        C414   1.260       .  A
O407        C414   1.260       .  A
C408        O415   1.260       .  A
C408        O409   1.260       .  A
C408       C2460   1.485       .  S
C410        O412   1.263       .  A
C410        O416   1.260       .  A
C410       C2453   1.478       .  S
C414       C2420   1.484       .  S
In417       O419   2.243       .  S
In417       O420   2.248       .  S
In417       O428   2.252       .  S
In417       O422   2.244       .  S
In417       O424   2.248       .  S
In417       O425   2.240       .  S
In417       O426   2.244       .  S
In417       O429   2.247       .  S
C418        O424   1.261       .  A
C418        O426   1.259       .  A
C418       C2390   1.483       .  S
O419        C427   1.259       .  A
O420        C427   1.261       .  A
C421        O428   1.261       .  A
C421        O422   1.260       .  A
C421       C2443   1.485       .  S
C423        O425   1.260       .  A
C423        O429   1.261       .  A
C423       C3070   1.484       .  S
C427       C2400   1.481       .  S
In430       O432   2.228       .  S
In430       O433   2.256       .  S
In430       O441   2.255       .  S
In430       O435   2.247       .  S
In430       O437   2.256       .  S
In430       O438   2.254       .  S
In430       O439   2.239       .  S
In430       O442   2.246       .  S
C431        O437   1.262       .  A
C431        O439   1.260       .  A
C431       C2413   1.485       .  S
O432        C440   1.259       .  A
O433        C440   1.263       .  A
C434        O441   1.261       .  A
C434        O435   1.260       .  A
C434       C2380   1.487       .  S
C436        O438   1.261       .  A
C436        O442   1.261       .  A
C436       C2370   1.487       .  S
C440       C2403   1.483       .  S
In443       O445   2.243       .  S
In443       O446   2.255       .  S
In443       O454   2.246       .  S
In443       O448   2.254       .  S
In443       O450   2.246       .  S
In443       O451   2.244       .  S
In443       O452   2.247       .  S
In443       O455   2.234       .  S
C444        O450   1.261       .  A
C444        O452   1.259       .  A
C444       C2393   1.483       .  S
O445        C453   1.260       .  A
O446        C453   1.260       .  A
C447        O454   1.261       .  A
C447        O448   1.261       .  A
C447       C2533   1.488       .  S
C449        O451   1.263       .  A
C449        O455   1.260       .  A
C449       C2360   1.477       .  S
C453       C3143   1.485       .  S
In456       O458   2.239       .  S
In456       O459   2.252       .  S
In456       O467   2.252       .  S
In456       O461   2.252       .  S
In456       O463   2.243       .  S
In456       O464   2.245       .  S
In456       O465   2.240       .  S
In456       O468   2.235       .  S
C457        O463   1.263       .  A
C457        O465   1.261       .  A
C457       C2503   1.483       .  S
O458        C466   1.260       .  A
O459        C466   1.260       .  A
C460        O467   1.260       .  A
C460        O461   1.260       .  A
C460       C2383   1.487       .  S
C462        O464   1.262       .  A
C462        O468   1.260       .  A
C462       C2363   1.481       .  S
C466       C2350   1.484       .  S
In469       O471   2.232       .  S
In469       O472   2.260       .  S
In469       O480   2.260       .  S
In469       O474   2.249       .  S
In469       O476   2.259       .  S
In469       O477   2.248       .  S
In469       O478   2.243       .  S
In469       O481   2.246       .  S
C470        O476   1.262       .  A
C470        O478   1.260       .  A
C470       C2320   1.487       .  S
O471        C479   1.260       .  A
O472        C479   1.262       .  A
C473        O480   1.261       .  A
C473        O474   1.260       .  A
C473       C2330   1.488       .  S
C475        O477   1.259       .  A
C475        O481   1.260       .  A
C475       C2433   1.483       .  S
C479       C2340   1.484       .  S
In482       O484   2.228       .  S
In482       O485   2.261       .  S
In482       O493   2.259       .  S
In482       O487   2.249       .  S
In482       O489   2.254       .  S
In482       O490   2.258       .  S
In482       O491   2.239       .  S
In482       O494   2.249       .  S
C483        O489   1.262       .  A
C483        O491   1.259       .  A
C483       C2290   1.483       .  S
O484        C492   1.259       .  A
O485        C492   1.263       .  A
C486        O493   1.262       .  A
C486        O487   1.260       .  A
C486       C2310   1.489       .  S
C488        O490   1.260       .  A
C488        O494   1.260       .  A
C488       C2300   1.488       .  S
C492       C2343   1.484       .  S
In495       O497   2.263       .  S
In495       O498   2.247       .  S
In495       O506   2.246       .  S
In495       O500   2.251       .  S
In495       O502   2.262       .  S
In495       O503   2.261       .  S
In495       O504   2.236       .  S
In495       O507   2.241       .  S
C496        O502   1.263       .  A
C496        O504   1.260       .  A
C496       C2323   1.487       .  S
O497        C505   1.262       .  A
O498        C505   1.261       .  A
C499        O506   1.260       .  A
C499        O500   1.262       .  A
C499       C2270   1.485       .  S
C501        O503   1.263       .  A
C501        O507   1.260       .  A
C501       C2280   1.488       .  S
C505       C2483   1.490       .  S
In508       O510   2.243       .  S
In508       O511   2.261       .  S
In508       O519   2.267       .  S
In508       O513   2.239       .  S
In508       O515   2.252       .  S
In508       O516   2.261       .  S
In508       O517   2.236       .  S
In508       O520   2.247       .  S
C509        O515   1.261       .  A
C509        O517   1.260       .  A
C509       C2260   1.483       .  S
O510        C518   1.259       .  A
O511        C518   1.261       .  A
C512        O519   1.262       .  A
C512        O513   1.258       .  A
C512       C2313   1.488       .  S
C514        O516   1.262       .  A
C514        O520   1.260       .  A
C514       C2283   1.488       .  S
C518       C2613   1.485       .  S
In521       O523   2.239       .  S
In521       O524   2.265       .  S
In521       O532   2.256       .  S
In521       O526   2.240       .  S
In521       O528   2.249       .  S
In521       O529   2.246       .  S
In521       O530   2.244       .  S
In521       O533   2.254       .  S
C522        O528   1.261       .  A
C522        O530   1.261       .  A
C522       C2230   1.484       .  S
O523        C531   1.259       .  A
O524        C531   1.262       .  A
C525        O532   1.261       .  A
C525        O526   1.259       .  A
C525       C2273   1.484       .  S
C527        O529   1.260       .  A
C527        O533   1.260       .  A
C527       C2240   1.485       .  S
C531       C2250   1.486       .  S
In534       O536   2.234       .  S
In534       O537   2.254       .  S
In534       O545   2.246       .  S
In534       O539   2.245       .  S
In534       O541   2.255       .  S
In534       O542   2.249       .  S
In534       O543   2.232       .  S
In534       O546   2.248       .  S
C535        O541   1.262       .  A
C535        O543   1.259       .  A
C535       C2263   1.483       .  S
O536        C544   1.261       .  A
O537        C544   1.263       .  A
C538        O545   1.260       .  A
C538        O539   1.261       .  A
C538       C2220   1.483       .  S
C540        O542   1.261       .  A
C540        O546   1.260       .  A
C540       C2840   1.486       .  S
C544       C2253   1.483       .  S
In547       O549   2.254       .  S
In547       O550   2.258       .  S
In547       O558   2.261       .  S
In547       O552   2.245       .  S
In547       O554   2.249       .  S
In547       O555   2.276       .  S
In547       O556   2.243       .  S
In547       O559   2.238       .  S
C548        O554   1.262       .  A
C548        O556   1.261       .  A
C548       C2203   1.482       .  S
O549        C557   1.259       .  A
O550        C557   1.262       .  A
C551        O558   1.261       .  A
C551        O552   1.259       .  A
C551       C2333   1.488       .  S
C553        O555   1.264       .  A
C553        O559   1.260       .  A
C553       C2210   1.492       .  S
C557       C2733   1.489       .  S
In560       O562   2.254       .  S
In560       O563   2.251       .  S
In560       O571   2.255       .  S
In560       O565   2.249       .  S
In560       O567   2.249       .  S
In560       O568   2.269       .  S
In560       O569   2.240       .  S
In560       O572   2.235       .  S
C561        O567   1.261       .  A
C561        O569   1.260       .  A
C561       C2293   1.483       .  S
O562        C570   1.259       .  A
O563        C570   1.260       .  A
C564        O571   1.261       .  A
C564        O565   1.259       .  A
C564       C2193   1.485       .  S
C566        O568   1.263       .  A
C566        O572   1.261       .  A
C566       C2213   1.490       .  S
C570       C2180   1.487       .  S
In573       O575   2.244       .  S
In573       O576   2.247       .  S
In573       O584   2.247       .  S
In573       O578   2.236       .  S
In573       O580   2.250       .  S
In573       O581   2.260       .  S
In573       O582   2.238       .  S
In573       O585   2.237       .  S
C574        O580   1.262       .  A
C574        O582   1.260       .  A
C574       C2170   1.483       .  S
O575        C583   1.260       .  A
O576        C583   1.262       .  A
C577        O584   1.261       .  A
C577        O578   1.260       .  A
C577       C2150   1.481       .  S
C579        O581   1.263       .  A
C579        O585   1.259       .  A
C579       C2233   1.486       .  S
C583       C2160   1.484       .  S
In586       O588   2.241       .  S
In586       O589   2.244       .  S
In586       O597   2.244       .  S
In586       O591   2.236       .  S
In586       O593   2.242       .  S
In586       O594   2.250       .  S
In586       O595   2.233       .  S
In586       O598   2.237       .  S
C587        O593   1.261       .  A
C587        O595   1.259       .  A
C587       C2140   1.479       .  S
O588        C596   1.260       .  A
O589        C596   1.261       .  A
C590        O597   1.261       .  A
C590        O591   1.260       .  A
C590       C2223   1.482       .  S
C592        O594   1.263       .  A
C592        O598   1.260       .  A
C592       C2173   1.481       .  S
C596       C2513   1.483       .  S
In599       O601   2.243       .  S
In599       O602   2.244       .  S
In599       O610   2.248       .  S
In599       O604   2.241       .  S
In599       O606   2.259       .  S
In599       O607   2.262       .  S
In599       O608   2.243       .  S
In599       O611   2.243       .  S
C600        O606   1.261       .  A
C600        O608   1.259       .  A
C600       C2200   1.485       .  S
O601        C609   1.261       .  A
O602        C609   1.263       .  A
C603        O610   1.262       .  A
C603        O604   1.261       .  A
C603       C2163   1.483       .  S
C605        O607   1.261       .  A
C605        O611   1.259       .  A
C605       C2670   1.487       .  S
C609       C2130   1.483       .  S
In612       O614   2.236       .  S
In612       O615   2.243       .  S
In612       O623   2.249       .  S
In612       O617   2.250       .  S
In612       O619   2.241       .  S
In612       O620   2.253       .  S
In612       O621   2.231       .  S
In612       O624   2.235       .  S
C613        O619   1.263       .  A
C613        O621   1.260       .  A
C613       C2143   1.479       .  S
O614        C622   1.260       .  A
O615        C622   1.263       .  A
C616        O623   1.261       .  A
C616        O617   1.261       .  A
C616       C2190   1.486       .  S
C618        O620   1.261       .  A
C618        O624   1.260       .  A
C618       C2353   1.483       .  S
C622       C2133   1.481       .  S
In625       O627   2.219       .  S
In625       O628   2.255       .  S
In625       O636   2.261       .  S
In625       O630   2.238       .  S
In625       O632   2.242       .  S
In625       O633   2.252       .  S
In625       O634   2.242       .  S
In625       O637   2.235       .  S
C626        O632   1.261       .  A
C626        O634   1.260       .  A
C626       C2100   1.480       .  S
O627        C635   1.259       .  A
O628        C635   1.262       .  A
C629        O636   1.262       .  A
C629        O630   1.259       .  A
C629       C2110   1.485       .  S
C631        O633   1.260       .  A
C631        O637   1.260       .  A
C631       C2983   1.481       .  S
C635       C2120   1.478       .  S
In638       O640   2.223       .  S
In638       O641   2.258       .  S
In638       O649   2.252       .  S
In638       O643   2.241       .  S
In638       O645   2.235       .  S
In638       O646   2.246       .  S
In638       O647   2.243       .  S
In638       O650   2.240       .  S
C639        O645   1.261       .  A
C639        O647   1.260       .  A
C639       C2070   1.480       .  S
O640        C648   1.259       .  A
O641        C648   1.263       .  A
C642        O649   1.261       .  A
C642        O643   1.260       .  A
C642       C2090   1.485       .  S
C644        O646   1.262       .  A
C644        O650   1.260       .  A
C644       C2080   1.484       .  S
C648       C2123   1.481       .  S
In651       O653   2.237       .  S
In651       O654   2.252       .  S
In651       O662   2.243       .  S
In651       O656   2.246       .  S
In651       O658   2.237       .  S
In651       O659   2.253       .  S
In651       O660   2.232       .  S
In651       O663   2.236       .  S
C652        O658   1.262       .  A
C652        O660   1.262       .  A
C652       C2103   1.480       .  S
O653        C661   1.260       .  A
O654        C661   1.261       .  A
C655        O662   1.259       .  A
C655        O656   1.259       .  A
C655       C2050   1.481       .  S
C657        O659   1.262       .  A
C657        O663   1.258       .  A
C657       C2060   1.479       .  S
C661       C2883   1.483       .  S
In664       O666   2.241       .  S
In664       O667   2.259       .  S
In664       O675   2.252       .  S
In664       O669   2.232       .  S
In664       O671   2.248       .  S
In664       O672   2.252       .  S
In664       O673   2.240       .  S
In664       O676   2.236       .  S
C665        O671   1.260       .  A
C665        O673   1.259       .  A
C665       C2030   1.482       .  S
O666        C674   1.259       .  A
O667        C674   1.261       .  A
C668        O675   1.263       .  A
C668        O669   1.260       .  A
C668       C2093   1.483       .  S
C670        O672   1.262       .  A
C670        O676   1.260       .  A
C670       C2063   1.481       .  S
C674       C2040   1.486       .  S
In677       O679   2.232       .  S
In677       O680   2.260       .  S
In677       O688   2.246       .  S
In677       O682   2.256       .  S
In677       O684   2.251       .  S
In677       O685   2.245       .  S
In677       O686   2.238       .  S
In677       O689   2.245       .  S
C678        O684   1.262       .  A
C678        O686   1.259       .  A
C678       C2033   1.481       .  S
O679        C687   1.261       .  A
O680        C687   1.262       .  A
C681        O688   1.260       .  A
C681        O682   1.260       .  A
C681       C2010   1.485       .  S
C683        O685   1.260       .  A
C683        O689   1.260       .  A
C683       C2003   1.483       .  S
C687       C2020   1.482       .  S
In690       O692   2.221       .  S
In690       O693   2.270       .  S
In690       O701   2.246       .  S
In690       O695   2.241       .  S
In690       O697   2.251       .  S
In690       O698   2.236       .  S
In690       O699   2.235       .  S
In690       O702   2.244       .  S
C691        O697   1.262       .  A
C691        O699   1.260       .  A
C691       C1983   1.483       .  S
O692        C700   1.259       .  A
O693        C700   1.262       .  A
C694        O701   1.261       .  A
C694        O695   1.259       .  A
C694       C2053   1.480       .  S
C696        O698   1.260       .  A
C696        O702   1.260       .  A
C696       C1993   1.480       .  S
C700       C2023   1.483       .  S
In703       O705   2.255       .  S
In703       O706   2.243       .  S
In703       O714   2.241       .  S
In703       O708   2.250       .  S
In703       O710   2.251       .  S
In703       O711   2.245       .  S
In703       O712   2.227       .  S
In703       O715   2.243       .  S
C704        O710   1.262       .  A
C704        O712   1.258       .  A
C704       C1960   1.477       .  S
O705        C713   1.260       .  A
O706        C713   1.259       .  A
C707        O714   1.261       .  A
C707        O708   1.261       .  A
C707       C2013   1.483       .  S
C709        O711   1.263       .  A
C709        O715   1.262       .  A
C709       C1970   1.484       .  S
C713       C3003   1.484       .  S
In716       O718   2.250       .  S
In716       O719   2.250       .  S
In716       O727   2.251       .  S
In716       O721   2.234       .  S
In716       O723   2.254       .  S
In716       O724   2.257       .  S
In716       O725   2.238       .  S
In716       O728   2.237       .  S
C717        O723   1.261       .  A
C717        O725   1.260       .  A
C717       C1980   1.484       .  S
O718        C726   1.259       .  A
O719        C726   1.261       .  A
C720        O727   1.262       .  A
C720        O721   1.260       .  A
C720       C1950   1.483       .  S
C722        O724   1.264       .  A
C722        O728   1.260       .  A
C722       C1973   1.486       .  S
C726       C1940   1.484       .  S
In729       O731   2.245       .  S
In729       O732   2.235       .  S
In729       O740   2.253       .  S
In729       O734   2.234       .  S
In729       O736   2.242       .  S
In729       O737   2.247       .  S
In729       O738   2.225       .  S
In729       O741   2.233       .  S
C730        O736   1.262       .  A
C730        O738   1.259       .  A
C730       C1910   1.477       .  S
O731        C739   1.261       .  A
O732        C739   1.260       .  A
C733        O740   1.262       .  A
C733        O734   1.260       .  A
C733       C2113   1.484       .  S
C735        O737   1.262       .  A
C735        O741   1.260       .  A
C735       C1930   1.480       .  S
C739       C1920   1.481       .  S
In742       O744   2.236       .  S
In742       O745   2.250       .  S
In742       O753   2.246       .  S
In742       O747   2.233       .  S
In742       O749   2.231       .  S
In742       O750   2.252       .  S
In742       O751   2.242       .  S
In742       O754   2.230       .  S
C743        O749   1.260       .  A
C743        O751   1.260       .  A
C743       C2073   1.479       .  S
O744        C752   1.259       .  A
O745        C752   1.262       .  A
C746        O753   1.262       .  A
C746        O747   1.259       .  A
C746       C1900   1.481       .  S
C748        O750   1.263       .  A
C748        O754   1.259       .  A
C748       C1933   1.482       .  S
C752       C1890   1.484       .  S
In755       O757   2.236       .  S
In755       O758   2.251       .  S
In755       O766   2.246       .  S
In755       O760   2.235       .  S
In755       O762   2.236       .  S
In755       O763   2.241       .  S
In755       O764   2.222       .  S
In755       O767   2.244       .  S
C756        O762   1.262       .  A
C756        O764   1.260       .  A
C756       C1913   1.475       .  S
O757        C765   1.259       .  A
O758        C765   1.262       .  A
C759        O766   1.261       .  A
C759        O760   1.259       .  A
C759       C1953   1.480       .  S
C761        O763   1.261       .  A
C761        O767   1.260       .  A
C761       C1870   1.483       .  S
C765       C1883   1.483       .  S
In768       O770   2.230       .  S
In768       O771   2.248       .  S
In768       O779   2.243       .  S
In768       O773   2.244       .  S
In768       O775   2.245       .  S
In768       O776   2.247       .  S
In768       O777   2.228       .  S
In768       O780   2.247       .  S
C769        O775   1.263       .  A
C769        O777   1.260       .  A
C769       C1963   1.479       .  S
O770        C778   1.260       .  A
O771        C778   1.263       .  A
C772        O779   1.260       .  A
C772        O773   1.260       .  A
C772       C1903   1.481       .  S
C774        O776   1.261       .  A
C774        O780   1.260       .  A
C774       C3063   1.485       .  S
C778       C1880   1.481       .  S
In781       O783   2.236       .  S
In781       O784   2.267       .  S
In781       O792   2.261       .  S
In781       O786   2.241       .  S
In781       O788   2.250       .  S
In781       O789   2.251       .  S
In781       O790   2.244       .  S
In781       O793   2.245       .  S
C782        O788   1.261       .  A
C782        O790   1.260       .  A
C782       C1843   1.484       .  S
O783        C791   1.259       .  A
O784        C791   1.263       .  A
C785        O792   1.262       .  A
C785        O786   1.259       .  A
C785       C1850   1.487       .  S
C787        O789   1.261       .  A
C787        O793   1.260       .  A
C787       C2583   1.486       .  S
C791       C1860   1.488       .  S
In794       O796   2.238       .  S
In794       O797   2.268       .  S
In794       O805   2.249       .  S
In794       O799   2.259       .  S
In794       O801   2.258       .  S
In794       O802   2.250       .  S
In794       O803   2.241       .  S
In794       O806   2.266       .  S
C795        O801   1.263       .  A
C795        O803   1.261       .  A
C795       C1863   1.488       .  S
O796        C804   1.260       .  A
O797        C804   1.262       .  A
C798        O805   1.259       .  A
C798        O799   1.260       .  A
C798       C2043   1.487       .  S
C800        O802   1.260       .  A
C800        O806   1.261       .  A
C800       C1830   1.490       .  S
C804       C1820   1.488       .  S
In807       O809   2.261       .  S
In807       O810   2.248       .  S
In807       O818   2.240       .  S
In807       O812   2.255       .  S
In807       O814   2.241       .  S
In807       O815   2.256       .  S
In807       O816   2.237       .  S
In807       O819   2.240       .  S
C808        O814   1.262       .  A
C808        O816   1.260       .  A
C808       C1810   1.477       .  S
O809        C817   1.260       .  A
O810        C817   1.260       .  A
C811        O818   1.260       .  A
C811        O812   1.260       .  A
C811       C2523   1.485       .  S
C813        O815   1.263       .  A
C813        O819   1.260       .  A
C813       C1840   1.486       .  S
C817       C1800   1.488       .  S
In820       O822   2.246       .  S
In820       O823   2.254       .  S
In820       O831   2.267       .  S
In820       O825   2.243       .  S
In820       O827   2.255       .  S
In820       O828   2.246       .  S
In820       O829   2.239       .  S
In820       O832   2.232       .  S
C821        O827   1.261       .  A
C821        O829   1.259       .  A
C821       C1780   1.484       .  S
O822        C830   1.261       .  A
O823        C830   1.260       .  A
C824        O831   1.262       .  A
C824        O825   1.259       .  A
C824       C1833   1.489       .  S
C826        O828   1.262       .  A
C826        O832   1.259       .  A
C826       C1813   1.472       .  S
C830       C1790   1.486       .  S
In833       O835   2.230       .  S
In833       O836   2.257       .  S
In833       O844   2.264       .  S
In833       O838   2.234       .  S
In833       O840   2.245       .  S
In833       O841   2.247       .  S
In833       O842   2.233       .  S
In833       O845   2.242       .  S
C834        O840   1.263       .  A
C834        O842   1.261       .  A
C834       C1760   1.480       .  S
O835        C843   1.259       .  A
O836        C843   1.263       .  A
C837        O844   1.261       .  A
C837        O838   1.260       .  A
C837       C1803   1.486       .  S
C839        O841   1.262       .  A
C839        O845   1.260       .  A
C839       C1923   1.483       .  S
C843       C1770   1.483       .  S
In846       O848   2.231       .  S
In846       O849   2.247       .  S
In846       O857   2.253       .  S
In846       O851   2.251       .  S
In846       O853   2.263       .  S
In846       O854   2.244       .  S
In846       O855   2.240       .  S
In846       O858   2.244       .  S
C847        O853   1.262       .  A
C847        O855   1.259       .  A
C847       C1783   1.485       .  S
O848        C856   1.261       .  A
O849        C856   1.262       .  A
C850        O857   1.261       .  A
C850        O851   1.261       .  A
C850       C1750   1.486       .  S
C852        O854   1.259       .  A
C852        O858   1.260       .  A
C852       C1743   1.481       .  S
C856       C1773   1.481       .  S
In859       O861   2.246       .  S
In859       O862   2.251       .  S
In859       O870   2.255       .  S
In859       O864   2.245       .  S
In859       O866   2.258       .  S
In859       O867   2.261       .  S
In859       O868   2.233       .  S
In859       O871   2.251       .  S
C860        O866   1.261       .  A
C860        O868   1.260       .  A
C860       C1710   1.483       .  S
O861        C869   1.260       .  A
O862        C869   1.261       .  A
C863        O870   1.261       .  A
C863        O864   1.259       .  A
C863       C1853   1.485       .  S
C865        O867   1.261       .  A
C865        O871   1.260       .  A
C865       C1733   1.488       .  S
C869       C1720   1.485       .  S
In872       O874   2.255       .  S
In872       O875   2.256       .  S
In872       O883   2.265       .  S
In872       O877   2.245       .  S
In872       O879   2.264       .  S
In872       O880   2.271       .  S
In872       O881   2.238       .  S
In872       O884   2.237       .  S
C873        O879   1.262       .  A
C873        O881   1.260       .  A
C873       C1823   1.487       .  S
O874        C882   1.260       .  A
O875        C882   1.260       .  A
C876        O883   1.262       .  A
C876        O877   1.260       .  A
C876       C1700   1.489       .  S
C878        O880   1.263       .  A
C878        O884   1.259       .  A
C878       C1730   1.489       .  S
C882       C2000   1.488       .  S
In885       O887   2.243       .  S
In885       O888   2.252       .  S
In885       O896   2.255       .  S
In885       O890   2.228       .  S
In885       O892   2.242       .  S
In885       O893   2.256       .  S
In885       O894   2.247       .  S
In885       O897   2.241       .  S
C886        O892   1.259       .  A
C886        O894   1.260       .  A
C886       C1763   1.480       .  S
O887        C895   1.259       .  A
O888        C895   1.261       .  A
C889        O896   1.263       .  A
C889        O890   1.260       .  A
C889       C1680   1.483       .  S
C891        O893   1.262       .  A
C891        O897   1.259       .  A
C891       C1690   1.481       .  S
C895       C1873   1.485       .  S
In898       O900   2.256       .  S
In898       O901   2.253       .  S
In898       O909   2.250       .  S
In898       O903   2.252       .  S
In898       O905   2.245       .  S
In898       O906   2.252       .  S
In898       O907   2.245       .  S
In898       O910   2.227       .  S
C899        O905   1.262       .  A
C899        O907   1.260       .  A
C899       C1693   1.481       .  S
O900        C908   1.259       .  A
O901        C908   1.260       .  A
C902        O909   1.261       .  A
C902        O903   1.260       .  A
C902       C2373   1.487       .  S
C904        O906   1.263       .  A
C904        O910   1.260       .  A
C904       C1670   1.480       .  S
C908       C1753   1.487       .  S
In911       O913   2.231       .  S
In911       O914   2.255       .  S
In911       O922   2.254       .  S
In911       O916   2.245       .  S
In911       O918   2.265       .  S
In911       O919   2.257       .  S
In911       O920   2.232       .  S
In911       O923   2.245       .  S
C912        O918   1.261       .  A
C912        O920   1.258       .  A
C912       C1713   1.484       .  S
O913        C921   1.261       .  A
O914        C921   1.262       .  A
C915        O922   1.262       .  A
C915        O916   1.260       .  A
C915       C1683   1.486       .  S
C917        O919   1.260       .  A
C917        O923   1.260       .  A
C917       C1650   1.485       .  S
C921       C1663   1.483       .  S
In924       O926   2.231       .  S
In924       O927   2.267       .  S
In924       O935   2.260       .  S
In924       O929   2.251       .  S
In924       O931   2.253       .  S
In924       O932   2.247       .  S
In924       O933   2.236       .  S
In924       O936   2.263       .  S
C925        O931   1.262       .  A
C925        O933   1.260       .  A
C925       C1673   1.481       .  S
O926        C934   1.258       .  A
O927        C934   1.262       .  A
C928        O935   1.261       .  A
C928        O929   1.259       .  A
C928       C1703   1.488       .  S
C930        O932   1.259       .  A
C930        O936   1.261       .  A
C930       C2423   1.487       .  S
C934       C1660   1.485       .  S
In937       O939   2.243       .  S
In937       O940   2.256       .  S
In937       O948   2.255       .  S
In937       O942   2.257       .  S
In937       O944   2.248       .  S
In937       O945   2.250       .  S
In937       O946   2.246       .  S
In937       O949   2.253       .  S
C938        O944   1.262       .  A
C938        O946   1.260       .  A
C938       C1620   1.485       .  S
O939        C947   1.261       .  A
O940        C947   1.262       .  A
C941        O948   1.260       .  A
C941        O942   1.260       .  A
C941       C1633   1.488       .  S
C943        O945   1.260       .  A
C943        O949   1.260       .  A
C943       C1893   1.485       .  S
C947       C1643   1.485       .  S
In950       O952   2.236       .  S
In950       O953   2.254       .  S
In950       O961   2.258       .  S
In950       O955   2.261       .  S
In950       O957   2.255       .  S
In950       O958   2.237       .  S
In950       O959   2.245       .  S
In950       O962   2.250       .  S
C951        O957   1.264       .  A
C951        O959   1.260       .  A
C951       C1590   1.487       .  S
O952        C960   1.261       .  A
O953        C960   1.263       .  A
C954        O961   1.260       .  A
C954        O955   1.262       .  A
C954       C1610   1.490       .  S
C956        O958   1.260       .  A
C956        O962   1.260       .  A
C956       C1600   1.482       .  S
C960       C1640   1.484       .  S
In963       O965   2.244       .  S
In963       O966   2.249       .  S
In963       O974   2.249       .  S
In963       O968   2.238       .  S
In963       O970   2.244       .  S
In963       O971   2.261       .  S
In963       O972   2.241       .  S
In963       O975   2.234       .  S
C964        O970   1.260       .  A
C964        O972   1.259       .  A
C964       C1570   1.480       .  S
O965        C973   1.259       .  A
O966        C973   1.261       .  A
C967        O974   1.263       .  A
C967        O968   1.261       .  A
C967       C1630   1.482       .  S
C969        O971   1.263       .  A
C969        O975   1.260       .  A
C969       C1583   1.484       .  S
C973       C2703   1.485       .  S
In976       O978   2.246       .  S
In976       O979   2.252       .  S
In976       O987   2.259       .  S
In976       O981   2.247       .  S
In976       O983   2.247       .  S
In976       O984   2.261       .  S
In976       O985   2.249       .  S
In976       O988   2.233       .  S
C977        O983   1.262       .  A
C977        O985   1.262       .  A
C977       C1593   1.486       .  S
O978        C986   1.260       .  A
O979        C986   1.260       .  A
C980        O987   1.261       .  A
C980        O981   1.259       .  A
C980       C1560   1.487       .  S
C982        O984   1.262       .  A
C982        O988   1.259       .  A
C982       C1580   1.483       .  S
C986       C1550   1.485       .  S
In989       O991   2.223       .  S
In989       O992   2.257       .  S
In989      O1000   2.240       .  S
In989       O994   2.230       .  S
In989       O996   2.238       .  S
In989       O997   2.235       .  S
In989       O998   2.232       .  S
In989      O1001   2.240       .  S
C990        O996   1.261       .  A
C990        O998   1.260       .  A
C990       C1573   1.479       .  S
O991        C999   1.259       .  A
O992        C999   1.263       .  A
C993       O1000   1.262       .  A
C993        O994   1.260       .  A
C993       C1533   1.478       .  S
C995        O997   1.261       .  A
C995       O1001   1.260       .  A
C995       C2633   1.480       .  S
C999       C1540   1.481       .  S
In1002     O1004   2.229       .  S
In1002     O1005   2.255       .  S
In1002     O1013   2.254       .  S
In1002     O1007   2.248       .  S
In1002     O1009   2.251       .  S
In1002     O1010   2.246       .  S
In1002     O1011   2.240       .  S
In1002     O1014   2.254       .  S
C1003      O1009   1.262       .  A
C1003      O1011   1.260       .  A
C1003      C1520   1.483       .  S
O1004      C1012   1.260       .  A
O1005      C1012   1.262       .  A
C1006      O1013   1.261       .  A
C1006      O1007   1.260       .  A
C1006      C1563   1.486       .  S
C1008      O1010   1.259       .  A
C1008      O1014   1.260       .  A
C1008      C1943   1.485       .  S
C1012      C1543   1.483       .  S
In1015     O1017   2.244       .  S
In1015     O1018   2.247       .  S
In1015     O1026   2.240       .  S
In1015     O1020   2.242       .  S
In1015     O1022   2.250       .  S
In1015     O1023   2.257       .  S
In1015     O1024   2.236       .  S
In1015     O1027   2.230       .  S
C1016      O1022   1.262       .  A
C1016      O1024   1.261       .  A
C1016      C1490   1.483       .  S
O1017      C1025   1.259       .  A
O1018      C1025   1.260       .  A
C1019      O1026   1.259       .  A
C1019      O1020   1.260       .  A
C1019      C1530   1.480       .  S
C1021      O1023   1.263       .  A
C1021      O1027   1.260       .  A
C1021      C1510   1.483       .  S
C1025      C1503   1.482       .  S
In1028     O1030   2.245       .  S
In1028     O1031   2.238       .  S
In1028     O1039   2.264       .  S
In1028     O1033   2.245       .  S
In1028     O1035   2.249       .  S
In1028     O1036   2.257       .  S
In1028     O1037   2.233       .  S
In1028     O1040   2.229       .  S
C1029      O1035   1.263       .  A
C1029      O1037   1.259       .  A
C1029      C1523   1.482       .  S
O1030      C1038   1.260       .  A
O1031      C1038   1.260       .  A
C1032      O1039   1.261       .  A
C1032      O1033   1.260       .  A
C1032      C1483   1.489       .  S
C1034      O1036   1.262       .  A
C1034      O1040   1.260       .  A
C1034      C1513   1.483       .  S
C1038      C1990   1.482       .  S
In1041     O1043   2.239       .  S
In1041     O1044   2.256       .  S
In1041     O1052   2.239       .  S
In1041     O1046   2.260       .  S
In1041     O1048   2.270       .  S
In1041     O1049   2.244       .  S
In1041     O1050   2.237       .  S
In1041     O1053   2.267       .  S
C1042      O1048   1.263       .  A
C1042      O1050   1.260       .  A
C1042      C1470   1.489       .  S
O1043      C1051   1.260       .  A
O1044      C1051   1.261       .  A
C1045      O1052   1.259       .  A
C1045      O1046   1.262       .  A
C1045      C1450   1.485       .  S
C1047      O1049   1.259       .  A
C1047      O1053   1.262       .  A
C1047      C1460   1.489       .  S
C1051      C1493   1.483       .  S
In1054     O1056   2.237       .  S
In1054     O1057   2.275       .  S
In1054     O1065   2.266       .  S
In1054     O1059   2.249       .  S
In1054     O1061   2.260       .  S
In1054     O1062   2.241       .  S
In1054     O1063   2.243       .  S
In1054     O1066   2.262       .  S
C1055      O1061   1.262       .  A
C1055      O1063   1.260       .  A
C1055      C1440   1.487       .  S
O1056      C1064   1.259       .  A
O1057      C1064   1.262       .  A
C1058      O1065   1.261       .  A
C1058      O1059   1.260       .  A
C1058      C1480   1.489       .  S
C1060      O1062   1.260       .  A
C1060      O1066   1.261       .  A
C1060      C2813   1.487       .  S
C1064      C1473   1.488       .  S
In1067     O1069   2.257       .  S
In1067     O1070   2.246       .  S
In1067     O1078   2.258       .  S
In1067     O1072   2.258       .  S
In1067     O1074   2.255       .  S
In1067     O1075   2.268       .  S
In1067     O1076   2.249       .  S
In1067     O1079   2.245       .  S
C1068      O1074   1.262       .  A
C1068      O1076   1.260       .  A
C1068      C1623   1.486       .  S
O1069      C1077   1.261       .  A
O1070      C1077   1.261       .  A
C1071      O1078   1.260       .  A
C1071      O1072   1.261       .  A
C1071      C1463   1.490       .  S
C1073      O1075   1.262       .  A
C1073      O1079   1.260       .  A
C1073      C1430   1.491       .  S
C1077      C2083   1.487       .  S
In1080     O1082   2.260       .  S
In1080     O1083   2.264       .  S
In1080     O1091   2.268       .  S
In1080     O1085   2.265       .  S
In1080     O1087   2.265       .  S
In1080     O1088   2.275       .  S
In1080     O1089   2.238       .  S
In1080     O1092   2.243       .  S
C1081      O1087   1.263       .  A
C1081      O1089   1.259       .  A
C1081      C1443   1.487       .  S
O1082      C1090   1.261       .  A
O1083      C1090   1.262       .  A
C1084      O1091   1.261       .  A
C1084      O1085   1.261       .  A
C1084      C1613   1.494       .  S
C1086      O1088   1.264       .  A
C1086      O1092   1.260       .  A
C1086      C1433   1.493       .  S
C1090      C2763   1.493       .  S
In1093     O1095   2.228       .  S
In1093     O1096   2.271       .  S
In1093     O1104   2.259       .  S
In1093     O1098   2.235       .  S
In1093     O1100   2.241       .  S
In1093     O1101   2.245       .  S
In1093     O1102   2.233       .  S
In1093     O1105   2.250       .  S
C1094      O1100   1.261       .  A
C1094      O1102   1.261       .  A
C1094      C1400   1.478       .  S
O1095      C1103   1.258       .  A
O1096      C1103   1.263       .  A
C1097      O1104   1.262       .  A
C1097      O1098   1.258       .  A
C1097      C1410   1.484       .  S
C1099      O1101   1.260       .  A
C1099      O1105   1.260       .  A
C1099      C1723   1.483       .  S
C1103      C1420   1.486       .  S
In1106     O1108   2.227       .  S
In1106     O1109   2.272       .  S
In1106     O1117   2.248       .  S
In1106     O1111   2.227       .  S
In1106     O1113   2.239       .  S
In1106     O1114   2.248       .  S
In1106     O1115   2.237       .  S
In1106     O1118   2.237       .  S
C1107      O1113   1.259       .  A
C1107      O1115   1.261       .  A
C1107      C1380   1.478       .  S
O1108      C1116   1.258       .  A
O1109      C1116   1.263       .  A
C1110      O1117   1.261       .  A
C1110      O1111   1.258       .  A
C1110      C1390   1.479       .  S
C1112      O1114   1.262       .  A
C1112      O1118   1.259       .  A
C1112      C1500   1.482       .  S
C1116      C1423   1.487       .  S
In1119     O1121   2.246       .  S
In1119     O1122   2.250       .  S
In1119     O1130   2.245       .  S
In1119     O1124   2.238       .  S
In1119     O1126   2.243       .  S
In1119     O1127   2.249       .  S
In1119     O1128   2.230       .  S
In1119     O1131   2.243       .  S
C1120      O1126   1.262       .  A
C1120      O1128   1.260       .  A
C1120      C1403   1.480       .  S
O1121      C1129   1.260       .  A
O1122      C1129   1.261       .  A
C1123      O1130   1.261       .  A
C1123      O1124   1.260       .  A
C1123      C1363   1.481       .  S
C1125      O1127   1.262       .  A
C1125      O1131   1.259       .  A
C1125      C1373   1.484       .  S
C1129      C1653   1.484       .  S
In1132     O1134   2.235       .  S
In1132     O1135   2.258       .  S
In1132     O1143   2.246       .  S
In1132     O1137   2.228       .  S
In1132     O1139   2.249       .  S
In1132     O1140   2.246       .  S
In1132     O1141   2.229       .  S
In1132     O1144   2.242       .  S
C1133      O1139   1.261       .  A
C1133      O1141   1.260       .  A
C1133      C1350   1.480       .  S
O1134      C1142   1.259       .  A
O1135      C1142   1.262       .  A
C1136      O1143   1.262       .  A
C1136      O1137   1.260       .  A
C1136      C1393   1.479       .  S
C1138      O1140   1.263       .  A
C1138      O1144   1.260       .  A
C1138      C1370   1.484       .  S
C1142      C2303   1.486       .  S
In1145     O1147   2.241       .  S
In1145     O1148   2.258       .  S
In1145     O1156   2.250       .  S
In1145     O1150   2.243       .  S
In1145     O1152   2.258       .  S
In1145     O1153   2.250       .  S
In1145     O1154   2.225       .  S
In1145     O1157   2.253       .  S
C1146      O1152   1.262       .  A
C1146      O1154   1.259       .  A
C1146      C1353   1.481       .  S
O1147      C1155   1.261       .  A
O1148      C1155   1.263       .  A
C1149      O1156   1.261       .  A
C1149      O1150   1.260       .  A
C1149      C1330   1.484       .  S
C1151      O1153   1.261       .  A
C1151      O1157   1.260       .  A
C1151      C2183   1.487       .  S
C1155      C1340   1.488       .  S
In1158     O1160   2.240       .  S
In1158     O1161   2.260       .  S
In1158     O1169   2.248       .  S
In1158     O1163   2.246       .  S
In1158     O1165   2.248       .  S
In1158     O1166   2.249       .  S
In1158     O1167   2.237       .  S
In1158     O1170   2.251       .  S
C1159      O1165   1.262       .  A
C1159      O1167   1.261       .  A
C1159      C1323   1.483       .  S
O1160      C1168   1.260       .  A
O1161      C1168   1.263       .  A
C1162      O1169   1.261       .  A
C1162      O1163   1.260       .  A
C1162      C1360   1.480       .  S
C1164      O1166   1.260       .  A
C1164      O1170   1.260       .  A
C1164      C1553   1.485       .  S
C1168      C1343   1.485       .  S
In1171     O1173   2.236       .  S
In1171     O1174   2.255       .  S
In1171     O1182   2.256       .  S
In1171     O1176   2.241       .  S
In1171     O1178   2.244       .  S
In1171     O1179   2.260       .  S
In1171     O1180   2.250       .  S
In1171     O1183   2.218       .  S
C1172      O1178   1.261       .  A
C1172      O1180   1.261       .  A
C1172      C1300   1.484       .  S
O1173      C1181   1.259       .  A
O1174      C1181   1.260       .  A
C1175      O1182   1.262       .  A
C1175      O1176   1.259       .  A
C1175      C1333   1.485       .  S
C1177      O1179   1.263       .  A
C1177      O1183   1.259       .  A
C1177      C1310   1.481       .  S
C1181      C1740   1.483       .  S
In1184     O1186   2.248       .  S
In1184     O1187   2.234       .  S
In1184     O1195   2.256       .  S
In1184     O1189   2.239       .  S
In1184     O1191   2.253       .  S
In1184     O1192   2.248       .  S
In1184     O1193   2.243       .  S
In1184     O1196   2.227       .  S
C1185      O1191   1.261       .  A
C1185      O1193   1.259       .  A
C1185      C1320   1.484       .  S
O1186      C1194   1.260       .  A
O1187      C1194   1.259       .  A
C1188      O1195   1.261       .  A
C1188      O1189   1.260       .  A
C1188      C1290   1.486       .  S
C1190      O1192   1.262       .  A
C1190      O1196   1.260       .  A
C1190      C1313   1.477       .  S
C1194      C1603   1.480       .  S
In1197     O1199   2.250       .  S
In1197     O1200   2.236       .  S
In1197     O1208   2.253       .  S
In1197     O1202   2.242       .  S
In1197     O1204   2.267       .  S
In1197     O1205   2.248       .  S
In1197     O1206   2.232       .  S
In1197     O1209   2.234       .  S
C1198      O1204   1.261       .  A
C1198      O1206   1.258       .  A
C1198      C1280   1.483       .  S
O1199      C1207   1.262       .  A
O1200      C1207   1.259       .  A
C1201      O1208   1.261       .  A
C1201      O1202   1.260       .  A
C1201      C2243   1.485       .  S
C1203      O1205   1.261       .  A
C1203      O1209   1.261       .  A
C1203      C1270   1.481       .  S
C1207      C1413   1.483       .  S
In1210     O1212   2.239       .  S
In1210     O1213   2.246       .  S
In1210     O1221   2.246       .  S
In1210     O1215   2.246       .  S
In1210     O1217   2.253       .  S
In1210     O1218   2.262       .  S
In1210     O1219   2.229       .  S
In1210     O1222   2.226       .  S
C1211      O1217   1.262       .  A
C1211      O1219   1.259       .  A
C1211      C1383   1.479       .  S
O1212      C1220   1.261       .  A
O1213      C1220   1.262       .  A
C1214      O1221   1.261       .  A
C1214      O1215   1.261       .  A
C1214      C1260   1.486       .  S
C1216      O1218   1.262       .  A
C1216      O1222   1.259       .  A
C1216      C1283   1.483       .  S
C1220      C1453   1.484       .  S
In1223     O1225   2.231       .  S
In1223     O1226   2.253       .  S
In1223     O1234   2.253       .  S
In1223     O1228   2.242       .  S
In1223     O1230   2.248       .  S
In1223     O1231   2.241       .  S
In1223     O1232   2.233       .  S
In1223     O1235   2.243       .  S
C1224      O1230   1.262       .  A
C1224      O1232   1.260       .  A
C1224      C1273   1.481       .  S
O1225      C1233   1.260       .  A
O1226      C1233   1.262       .  A
C1227      O1234   1.260       .  A
C1227      O1228   1.260       .  A
C1227      C1293   1.485       .  S
C1229      O1231   1.260       .  A
C1229      O1235   1.260       .  A
C1229      C2153   1.482       .  S
C1233      C1250   1.482       .  S
In1236     O1238   2.226       .  S
In1236     O1239   2.256       .  S
In1236     O1247   2.261       .  S
In1236     O1241   2.246       .  S
In1236     O1243   2.256       .  S
In1236     O1244   2.251       .  S
In1236     O1245   2.243       .  S
In1236     O1248   2.241       .  S
C1237      O1243   1.262       .  A
C1237      O1245   1.260       .  A
C1237      C1303   1.486       .  S
O1238      C1246   1.260       .  A
O1239      C1246   1.262       .  A
C1240      O1247   1.261       .  A
C1240      O1241   1.260       .  A
C1240      C1263   1.485       .  S
C1242      O1244   1.260       .  A
C1242      O1248   1.260       .  A
C1242      C1793   1.484       .  S
C1246      C1253   1.481       .  S
C1249      C1250   1.407       .  A
C1249      C1254   1.394       .  A
C1249      F1256   1.358       .  S
C1250      C1251   1.409       .  A
C1251      C1252   1.401       .  A
C1251      F1258   1.358       .  S
C1252      C1253   1.409       .  A
C1252      F1257   1.358       .  S
C1253      C1254   1.407       .  A
C1254      F1255   1.358       .  S
C1259      C1260   1.409       .  A
C1259      C1264   1.401       .  A
C1259      F1266   1.358       .  S
C1260      C1261   1.409       .  A
C1261      C1262   1.400       .  A
C1261      F1268   1.358       .  S
C1262      C1263   1.408       .  A
C1262      F1267   1.358       .  S
C1263      C1264   1.408       .  A
C1264      F1265   1.358       .  S
C1269      C1270   1.409       .  A
C1269      C1274   1.400       .  A
C1269      F1276   1.358       .  S
C1270      C1271   1.407       .  A
C1271      C1272   1.396       .  A
C1271      F1278   1.358       .  S
C1272      C1273   1.408       .  A
C1272      F1277   1.358       .  S
C1273      C1274   1.408       .  A
C1274      F1275   1.358       .  S
C1279      C1280   1.407       .  A
C1279      C1284   1.394       .  A
C1279      F1286   1.358       .  S
C1280      C1281   1.409       .  A
C1281      C1282   1.403       .  A
C1281      F1288   1.358       .  S
C1282      C1283   1.409       .  A
C1282      F1287   1.358       .  S
C1283      C1284   1.408       .  A
C1284      F1285   1.358       .  S
C1289      C1290   1.409       .  A
C1289      C1294   1.401       .  A
C1289      F1296   1.358       .  S
C1290      C1291   1.408       .  A
C1291      C1292   1.398       .  A
C1291      F1298   1.358       .  S
C1292      C1293   1.408       .  A
C1292      F1297   1.358       .  S
C1293      C1294   1.409       .  A
C1294      F1295   1.358       .  S
C1299      C1300   1.408       .  A
C1299      C1304   1.399       .  A
C1299      F1306   1.358       .  S
C1300      C1301   1.408       .  A
C1301      C1302   1.400       .  A
C1301      F1308   1.358       .  S
C1302      C1303   1.408       .  A
C1302      F1307   1.358       .  S
C1303      C1304   1.409       .  A
C1304      F1305   1.358       .  S
C1309      C1310   1.409       .  A
C1309      C1314   1.393       .  A
C1309      F1316   1.358       .  S
C1310      C1311   1.409       .  A
C1311      C1312   1.401       .  A
C1311      F1318   1.358       .  S
C1312      C1313   1.408       .  A
C1312      F1317   1.358       .  S
C1313      C1314   1.405       .  A
C1314      F1315   1.358       .  S
C1319      C1320   1.409       .  A
C1319      C1324   1.398       .  A
C1319      F1326   1.358       .  S
C1320      C1321   1.408       .  A
C1321      C1322   1.399       .  A
C1321      F1328   1.357       .  S
C1322      C1323   1.408       .  A
C1322      F1327   1.358       .  S
C1323      C1324   1.408       .  A
C1324      F1325   1.358       .  S
C1329      C1330   1.408       .  A
C1329      C1334   1.400       .  A
C1329      F1336   1.358       .  S
C1330      C1331   1.408       .  A
C1331      C1332   1.399       .  A
C1331      F1338   1.358       .  S
C1332      C1333   1.409       .  A
C1332      F1337   1.358       .  S
C1333      C1334   1.408       .  A
C1334      F1335   1.357       .  S
C1339      C1340   1.409       .  A
C1339      C1344   1.399       .  A
C1339      F1346   1.358       .  S
C1340      C1341   1.409       .  A
C1341      C1342   1.402       .  A
C1341      F1348   1.357       .  S
C1342      C1343   1.408       .  A
C1342      F1347   1.358       .  S
C1343      C1344   1.408       .  A
C1344      F1345   1.358       .  S
C1349      C1350   1.408       .  A
C1349      C1354   1.401       .  A
C1349      F1356   1.358       .  S
C1350      C1351   1.407       .  A
C1351      C1352   1.394       .  A
C1351      F1358   1.358       .  S
C1352      C1353   1.408       .  A
C1352      F1357   1.358       .  S
C1353      C1354   1.408       .  A
C1354      F1355   1.358       .  S
C1359      C1360   1.407       .  A
C1359      C1364   1.399       .  A
C1359      F1366   1.358       .  S
C1360      C1361   1.407       .  A
C1361      C1362   1.399       .  A
C1361      F1368   1.358       .  S
C1362      C1363   1.408       .  A
C1362      F1367   1.358       .  S
C1363      C1364   1.408       .  A
C1364      F1365   1.358       .  S
C1369      C1370   1.410       .  A
C1369      C1374   1.400       .  A
C1369      F1376   1.358       .  S
C1370      C1371   1.407       .  A
C1371      C1372   1.398       .  A
C1371      F1378   1.357       .  S
C1372      C1373   1.407       .  A
C1372      F1377   1.357       .  S
C1373      C1374   1.410       .  A
C1374      F1375   1.358       .  S
C1379      C1380   1.406       .  A
C1379      C1384   1.395       .  A
C1379      F1386   1.358       .  S
C1380      C1381   1.408       .  A
C1381      C1382   1.399       .  A
C1381      F1388   1.358       .  S
C1382      C1383   1.408       .  A
C1382      F1387   1.358       .  S
C1383      C1384   1.408       .  A
C1384      F1385   1.358       .  S
C1389      C1390   1.409       .  A
C1389      C1394   1.396       .  A
C1389      F1396   1.358       .  S
C1390      C1391   1.407       .  A
C1391      C1392   1.398       .  A
C1391      F1398   1.358       .  S
C1392      C1393   1.408       .  A
C1392      F1397   1.358       .  S
C1393      C1394   1.407       .  A
C1394      F1395   1.358       .  S
C1399      C1400   1.408       .  A
C1399      C1404   1.398       .  A
C1399      F1406   1.358       .  S
C1400      C1401   1.407       .  A
C1401      C1402   1.395       .  A
C1401      F1408   1.358       .  S
C1402      C1403   1.408       .  A
C1402      F1407   1.358       .  S
C1403      C1404   1.408       .  A
C1404      F1405   1.358       .  S
C1409      C1410   1.407       .  A
C1409      C1414   1.400       .  A
C1409      F1416   1.357       .  S
C1410      C1411   1.409       .  A
C1411      C1412   1.398       .  A
C1411      F1418   1.358       .  S
C1412      C1413   1.409       .  A
C1412      F1417   1.358       .  S
C1413      C1414   1.408       .  A
C1414      F1415   1.357       .  S
C1419      C1420   1.408       .  A
C1419      C1424   1.395       .  A
C1419      F1426   1.358       .  S
C1420      C1421   1.410       .  A
C1421      C1422   1.405       .  A
C1421      F1428   1.358       .  S
C1422      C1423   1.410       .  A
C1422      F1427   1.358       .  S
C1423      C1424   1.408       .  A
C1424      F1425   1.358       .  S
C1429      C1430   1.410       .  A
C1429      C1434   1.406       .  A
C1429      F1436   1.358       .  S
C1430      C1431   1.409       .  A
C1431      C1432   1.399       .  A
C1431      F1438   1.358       .  S
C1432      C1433   1.410       .  A
C1432      F1437   1.358       .  S
C1433      C1434   1.410       .  A
C1434      F1435   1.358       .  S
C1439      C1440   1.408       .  A
C1439      C1444   1.398       .  A
C1439      F1446   1.358       .  S
C1440      C1441   1.410       .  A
C1441      C1442   1.403       .  A
C1441      F1448   1.358       .  S
C1442      C1443   1.409       .  A
C1442      F1447   1.358       .  S
C1443      C1444   1.409       .  A
C1444      F1445   1.358       .  S
C1449      C1450   1.409       .  A
C1449      C1454   1.401   1_545  A
C1449      F1456   1.358       .  S
C1450      C1451   1.409       .  A
C1451      C1452   1.397   1_545  A
C1451      F1458   1.358       .  S
C1452      C1453   1.408       .  A
C1452      F1457   1.358       .  S
C1453      C1454   1.409       .  A
C1454      F1455   1.358       .  S
C1459      C1460   1.409       .  A
C1459      C1464   1.403       .  A
C1459      F1466   1.358       .  S
C1460      C1461   1.409       .  A
C1461      C1462   1.401       .  A
C1461      F1468   1.358       .  S
C1462      C1463   1.409       .  A
C1462      F1467   1.358       .  S
C1463      C1464   1.410       .  A
C1464      F1465   1.358       .  S
C1469      C1470   1.410       .  A
C1469      C1474   1.406       .  A
C1469      F1476   1.358       .  S
C1470      C1471   1.408       .  A
C1471      C1472   1.396       .  A
C1471      F1478   1.358       .  S
C1472      C1473   1.408       .  A
C1472      F1477   1.358       .  S
C1473      C1474   1.410       .  A
C1474      F1475   1.358       .  S
C1479      C1480   1.410       .  A
C1479      C1484   1.404       .  A
C1479      F1486   1.358       .  S
C1480      C1481   1.408       .  A
C1481      C1482   1.400       .  A
C1481      F1488   1.358       .  S
C1482      C1483   1.409       .  A
C1482      F1487   1.358       .  S
C1483      C1484   1.409       .  A
C1484      F1485   1.358       .  S
C1489      C1490   1.408       .  A
C1489      C1494   1.397       .  A
C1489      F1496   1.358       .  S
C1490      C1491   1.409       .  A
C1491      C1492   1.402       .  A
C1491      F1498   1.358       .  S
C1492      C1493   1.408       .  A
C1492      F1497   1.358       .  S
C1493      C1494   1.408       .  A
C1494      F1495   1.358       .  S
C1499      C1500   1.407       .  A
C1499      C1504   1.399   1_565  A
C1499      F1506   1.358       .  S
C1500      C1501   1.409       .  A
C1501      C1502   1.398   1_565  A
C1501      F1508   1.358       .  S
C1502      C1503   1.408       .  A
C1502      F1507   1.358       .  S
C1503      C1504   1.408       .  A
C1504      F1505   1.358       .  S
C1509      C1510   1.409       .  A
C1509      C1514   1.402       .  A
C1509      F1516   1.358       .  S
C1510      C1511   1.407       .  A
C1511      C1512   1.395       .  A
C1511      F1518   1.358       .  S
C1512      C1513   1.408       .  A
C1512      F1517   1.358       .  S
C1513      C1514   1.409       .  A
C1514      F1515   1.358       .  S
C1519      C1520   1.408       .  A
C1519      C1524   1.399       .  A
C1519      F1526   1.357       .  S
C1520      C1521   1.408       .  A
C1521      C1522   1.397       .  A
C1521      F1528   1.358       .  S
C1522      C1523   1.409       .  A
C1522      F1527   1.358       .  S
C1523      C1524   1.408       .  A
C1524      F1525   1.358       .  S
C1529      C1530   1.408       .  A
C1529      C1534   1.397       .  A
C1529      F1536   1.358       .  S
C1530      C1531   1.408       .  A
C1531      C1532   1.397       .  A
C1531      F1538   1.358       .  S
C1532      C1533   1.408       .  A
C1532      F1537   1.358       .  S
C1533      C1534   1.407       .  A
C1534      F1535   1.358       .  S
C1539      C1540   1.407       .  A
C1539      C1544   1.394       .  A
C1539      F1546   1.358       .  S
C1540      C1541   1.408       .  A
C1541      C1542   1.402       .  A
C1541      F1548   1.358       .  S
C1542      C1543   1.409       .  A
C1542      F1547   1.358       .  S
C1543      C1544   1.407       .  A
C1544      F1545   1.358       .  S
C1549      C1550   1.409       .  A
C1549      C1554   1.399       .  A
C1549      F1556   1.358       .  S
C1550      C1551   1.408       .  A
C1551      C1552   1.400       .  A
C1551      F1558   1.358       .  S
C1552      C1553   1.408       .  A
C1552      F1557   1.358       .  S
C1553      C1554   1.409       .  A
C1554      F1555   1.358       .  S
C1559      C1560   1.409       .  A
C1559      C1564   1.401       .  A
C1559      F1566   1.358       .  S
C1560      C1561   1.409       .  A
C1561      C1562   1.399       .  A
C1561      F1568   1.358       .  S
C1562      C1563   1.408       .  A
C1562      F1567   1.358       .  S
C1563      C1564   1.409       .  A
C1564      F1565   1.358       .  S
C1569      C1570   1.408       .  A
C1569      C1574   1.397       .  A
C1569      F1576   1.358       .  S
C1570      C1571   1.407       .  A
C1571      C1572   1.397       .  A
C1571      F1578   1.358       .  S
C1572      C1573   1.407       .  A
C1572      F1577   1.358       .  S
C1573      C1574   1.408       .  A
C1574      F1575   1.358       .  S
C1579      C1580   1.408       .  A
C1579      C1584   1.396       .  A
C1579      F1586   1.358       .  S
C1580      C1581   1.408       .  A
C1581      C1582   1.403       .  A
C1581      F1588   1.358       .  S
C1582      C1583   1.409       .  A
C1582      F1587   1.358       .  S
C1583      C1584   1.408       .  A
C1584      F1585   1.358       .  S
C1589      C1590   1.407       .  A
C1589      C1594   1.400       .  A
C1589      F1596   1.357       .  S
C1590      C1591   1.411       .  A
C1591      C1592   1.401       .  A
C1591      F1598   1.358       .  S
C1592      C1593   1.409       .  A
C1592      F1597   1.358       .  S
C1593      C1594   1.409       .  A
C1594      F1595   1.358       .  S
C1599      C1600   1.409       .  A
C1599      C1604   1.400       .  A
C1599      F1606   1.358       .  S
C1600      C1601   1.408       .  A
C1601      C1602   1.396       .  A
C1601      F1608   1.358       .  S
C1602      C1603   1.407       .  A
C1602      F1607   1.358       .  S
C1603      C1604   1.408       .  A
C1604      F1605   1.358       .  S
C1609      C1610   1.407       .  A
C1609      C1614   1.404       .  A
C1609      F1616   1.358       .  S
C1610      C1611   1.409       .  A
C1611      C1612   1.404       .  A
C1611      F1618   1.358       .  S
C1612      C1613   1.411       .  A
C1612      F1617   1.358       .  S
C1613      C1614   1.411       .  A
C1614      F1615   1.357       .  S
C1619      C1620   1.408       .  A
C1619      C1624   1.400       .  A
C1619      F1626   1.358       .  S
C1620      C1621   1.409       .  A
C1621      C1622   1.400       .  A
C1621      F1628   1.358       .  S
C1622      C1623   1.409       .  A
C1622      F1627   1.358       .  S
C1623      C1624   1.408       .  A
C1624      F1625   1.357       .  S
C1629      C1630   1.407       .  A
C1629      C1634   1.401       .  A
C1629      F1636   1.358       .  S
C1630      C1631   1.407       .  A
C1631      C1632   1.400       .  A
C1631      F1638   1.358       .  S
C1632      C1633   1.410       .  A
C1632      F1637   1.357       .  S
C1633      C1634   1.410       .  A
C1634      F1635   1.358       .  S
C1639      C1640   1.408       .  A
C1639      C1644   1.398       .  A
C1639      F1646   1.358       .  S
C1640      C1641   1.408       .  A
C1641      C1642   1.402       .  A
C1641      F1648   1.358       .  S
C1642      C1643   1.409       .  A
C1642      F1647   1.358       .  S
C1643      C1644   1.408       .  A
C1644      F1645   1.358       .  S
C1649      C1650   1.408       .  A
C1649      C1654   1.398       .  A
C1649      F1656   1.358       .  S
C1650      C1651   1.409       .  A
C1651      C1652   1.401       .  A
C1651      F1658   1.358       .  S
C1652      C1653   1.408       .  A
C1652      F1657   1.358       .  S
C1653      C1654   1.408       .  A
C1654      F1655   1.358       .  S
C1659      C1660   1.408       .  A
C1659      C1664   1.394       .  A
C1659      F1666   1.358       .  S
C1660      C1661   1.409       .  A
C1661      C1662   1.403       .  A
C1661      F1668   1.358       .  S
C1662      C1663   1.410       .  A
C1662      F1667   1.358       .  S
C1663      C1664   1.406       .  A
C1664      F1665   1.358       .  S
C1669      C1670   1.408       .  A
C1669      C1674   1.401       .  A
C1669      F1676   1.358       .  S
C1670      C1671   1.407       .  A
C1671      C1672   1.395       .  A
C1671      F1678   1.358       .  S
C1672      C1673   1.407       .  A
C1672      F1677   1.358       .  S
C1673      C1674   1.409       .  A
C1674      F1675   1.358       .  S
C1679      C1680   1.408       .  A
C1679      C1684   1.398       .  A
C1679      F1686   1.358       .  S
C1680      C1681   1.408       .  A
C1681      C1682   1.401       .  A
C1681      F1688   1.358       .  S
C1682      C1683   1.409       .  A
C1682      F1687   1.357       .  S
C1683      C1684   1.409       .  A
C1684      F1685   1.358       .  S
C1689      C1690   1.408       .  A
C1689      C1694   1.399       .  A
C1689      F1696   1.358       .  S
C1690      C1691   1.407       .  A
C1691      C1692   1.399       .  A
C1691      F1698   1.357       .  S
C1692      C1693   1.407       .  A
C1692      F1697   1.358       .  S
C1693      C1694   1.408       .  A
C1694      F1695   1.358       .  S
C1699      C1700   1.409       .  A
C1699      C1704   1.403       .  A
C1699      F1706   1.357       .  S
C1700      C1701   1.409       .  A
C1701      C1702   1.400       .  A
C1701      F1708   1.358       .  S
C1702      C1703   1.409       .  A
C1702      F1707   1.358       .  S
C1703      C1704   1.408       .  A
C1704      F1705   1.358       .  S
C1709      C1710   1.409       .  A
C1709      C1714   1.403       .  A
C1709      F1716   1.358       .  S
C1710      C1711   1.407       .  A
C1711      C1712   1.395       .  A
C1711      F1718   1.358       .  S
C1712      C1713   1.408       .  A
C1712      F1717   1.358       .  S
C1713      C1714   1.409       .  A
C1714      F1715   1.358       .  S
C1719      C1720   1.409       .  A
C1719      C1724   1.400       .  A
C1719      F1726   1.358       .  S
C1720      C1721   1.409       .  A
C1721      C1722   1.399       .  A
C1721      F1728   1.358       .  S
C1722      C1723   1.408       .  A
C1722      F1727   1.358       .  S
C1723      C1724   1.407       .  A
C1724      F1725   1.358       .  S
C1729      C1730   1.410       .  A
C1729      C1734   1.399       .  A
C1729      F1736   1.358       .  S
C1730      C1731   1.409       .  A
C1731      C1732   1.404       .  A
C1731      F1738   1.358       .  S
C1732      C1733   1.410       .  A
C1732      F1737   1.358       .  S
C1733      C1734   1.407       .  A
C1734      F1735   1.358       .  S
C1739      C1740   1.408       .  A
C1739      C1744   1.397   1_455  A
C1739      F1746   1.358       .  S
C1740      C1741   1.408       .  A
C1741      C1742   1.400   1_455  A
C1741      F1748   1.358       .  S
C1742      C1743   1.409       .  A
C1742      F1747   1.358       .  S
C1743      C1744   1.406       .  A
C1744      F1745   1.358       .  S
C1749      C1750   1.409       .  A
C1749      C1754   1.401       .  A
C1749      F1756   1.358       .  S
C1750      C1751   1.408       .  A
C1751      C1752   1.400       .  A
C1751      F1758   1.358       .  S
C1752      C1753   1.409       .  A
C1752      F1757   1.358       .  S
C1753      C1754   1.409       .  A
C1754      F1755   1.358       .  S
C1759      C1760   1.407       .  A
C1759      C1764   1.398       .  A
C1759      F1766   1.358       .  S
C1760      C1761   1.408       .  A
C1761      C1762   1.398       .  A
C1761      F1768   1.358       .  S
C1762      C1763   1.407       .  A
C1762      F1767   1.358       .  S
C1763      C1764   1.408       .  A
C1764      F1765   1.358       .  S
C1769      C1770   1.408       .  A
C1769      C1774   1.401       .  A
C1769      F1776   1.358       .  S
C1770      C1771   1.409       .  A
C1771      C1772   1.395       .  A
C1771      F1778   1.358       .  S
C1772      C1773   1.407       .  A
C1772      F1777   1.358       .  S
C1773      C1774   1.409       .  A
C1774      F1775   1.358       .  S
C1779      C1780   1.409       .  A
C1779      C1784   1.402       .  A
C1779      F1786   1.358       .  S
C1780      C1781   1.408       .  A
C1781      C1782   1.397       .  A
C1781      F1788   1.358       .  S
C1782      C1783   1.409       .  A
C1782      F1787   1.358       .  S
C1783      C1784   1.408       .  A
C1784      F1785   1.357       .  S
C1789      C1790   1.408       .  A
C1789      C1794   1.397   1_655  A
C1789      F1796   1.357       .  S
C1790      C1791   1.410       .  A
C1791      C1792   1.401   1_655  A
C1791      F1798   1.358       .  S
C1792      C1793   1.409       .  A
C1792      F1797   1.358       .  S
C1793      C1794   1.407       .  A
C1794      F1795   1.358       .  S
C1799      C1800   1.408       .  A
C1799      C1804   1.397       .  A
C1799      F1806   1.357       .  S
C1800      C1801   1.411       .  A
C1801      C1802   1.404       .  A
C1801      F1808   1.358       .  S
C1802      C1803   1.409       .  A
C1802      F1807   1.358       .  S
C1803      C1804   1.408       .  A
C1804      F1805   1.358       .  S
C1809      C1810   1.407       .  A
C1809      C1814   1.398       .  A
C1809      F1816   1.358       .  S
C1810      C1811   1.408       .  A
C1811      C1812   1.397       .  A
C1811      F1818   1.358       .  S
C1812      C1813   1.405       .  A
C1812      F1817   1.358       .  S
C1813      C1814   1.405       .  A
C1814      F1815   1.358       .  S
C1819      C1820   1.408       .  A
C1819      C1824   1.397       .  A
C1819      F1826   1.358       .  S
C1820      C1821   1.410       .  A
C1821      C1822   1.405       .  A
C1821      F1828   1.358       .  S
C1822      C1823   1.410       .  A
C1822      F1827   1.358       .  S
C1823      C1824   1.408       .  A
C1824      F1825   1.358       .  S
C1829      C1830   1.410       .  A
C1829      C1834   1.404       .  A
C1829      F1836   1.358       .  S
C1830      C1831   1.409       .  A
C1831      C1832   1.400       .  A
C1831      F1838   1.358       .  S
C1832      C1833   1.409       .  A
C1832      F1837   1.358       .  S
C1833      C1834   1.409       .  A
C1834      F1835   1.358       .  S
C1839      C1840   1.409       .  A
C1839      C1844   1.398       .  A
C1839      F1846   1.358       .  S
C1840      C1841   1.408       .  A
C1841      C1842   1.400       .  A
C1841      F1848   1.358       .  S
C1842      C1843   1.408       .  A
C1842      F1847   1.358       .  S
C1843      C1844   1.408       .  A
C1844      F1845   1.358       .  S
C1849      C1850   1.409       .  A
C1849      C1854   1.401       .  A
C1849      F1856   1.357       .  S
C1850      C1851   1.409       .  A
C1851      C1852   1.399       .  A
C1851      F1858   1.358       .  S
C1852      C1853   1.408       .  A
C1852      F1857   1.358       .  S
C1853      C1854   1.408       .  A
C1854      F1855   1.358       .  S
C1859      C1860   1.409       .  A
C1859      C1864   1.398       .  A
C1859      F1866   1.358       .  S
C1860      C1861   1.409       .  A
C1861      C1862   1.404       .  A
C1861      F1868   1.358       .  S
C1862      C1863   1.410       .  A
C1862      F1867   1.358       .  S
C1863      C1864   1.408       .  A
C1864      F1865   1.358       .  S
C1869      C1870   1.408       .  A
C1869      C1874   1.399       .  A
C1869      F1876   1.358       .  S
C1870      C1871   1.408       .  A
C1871      C1872   1.399       .  A
C1871      F1878   1.358       .  S
C1872      C1873   1.409       .  A
C1872      F1877   1.358       .  S
C1873      C1874   1.408       .  A
C1874      F1875   1.357       .  S
C1879      C1880   1.408       .  A
C1879      C1884   1.397       .  A
C1879      F1886   1.358       .  S
C1880      C1881   1.407       .  A
C1881      C1882   1.399       .  A
C1881      F1888   1.358       .  S
C1882      C1883   1.408       .  A
C1882      F1887   1.357       .  S
C1883      C1884   1.409       .  A
C1884      F1885   1.358       .  S
C1889      C1890   1.408       .  A
C1889      C1894   1.400   1_655  A
C1889      F1896   1.358       .  S
C1890      C1891   1.409       .  A
C1891      C1892   1.399   1_655  A
C1891      F1898   1.358       .  S
C1892      C1893   1.408       .  A
C1892      F1897   1.358       .  S
C1893      C1894   1.409       .  A
C1894      F1895   1.358       .  S
C1899      C1900   1.409       .  A
C1899      C1904   1.398       .  A
C1899      F1906   1.358       .  S
C1900      C1901   1.407       .  A
C1901      C1902   1.398       .  A
C1901      F1908   1.358       .  S
C1902      C1903   1.408       .  A
C1902      F1907   1.358       .  S
C1903      C1904   1.408       .  A
C1904      F1905   1.358       .  S
C1909      C1910   1.408       .  A
C1909      C1914   1.394       .  A
C1909      F1916   1.358       .  S
C1910      C1911   1.407       .  A
C1911      C1912   1.397       .  A
C1911      F1918   1.358       .  S
C1912      C1913   1.407       .  A
C1912      F1917   1.358       .  S
C1913      C1914   1.407       .  A
C1914      F1915   1.358       .  S
C1919      C1920   1.408       .  A
C1919      C1924   1.399       .  A
C1919      F1926   1.358       .  S
C1920      C1921   1.408       .  A
C1921      C1922   1.398       .  A
C1921      F1928   1.358       .  S
C1922      C1923   1.408       .  A
C1922      F1927   1.358       .  S
C1923      C1924   1.410       .  A
C1924      F1925   1.358       .  S
C1929      C1930   1.407       .  A
C1929      C1934   1.396       .  A
C1929      F1936   1.358       .  S
C1930      C1931   1.408       .  A
C1931      C1932   1.399       .  A
C1931      F1938   1.358       .  S
C1932      C1933   1.408       .  A
C1932      F1937   1.358       .  S
C1933      C1934   1.409       .  A
C1934      F1935   1.358       .  S
C1939      C1940   1.407       .  A
C1939      C1944   1.399       .  A
C1939      F1946   1.358       .  S
C1940      C1941   1.409       .  A
C1941      C1942   1.400       .  A
C1941      F1948   1.358       .  S
C1942      C1943   1.409       .  A
C1942      F1947   1.358       .  S
C1943      C1944   1.408       .  A
C1944      F1945   1.358       .  S
C1949      C1950   1.409       .  A
C1949      C1954   1.399       .  A
C1949      F1956   1.358       .  S
C1950      C1951   1.409       .  A
C1951      C1952   1.397       .  A
C1951      F1958   1.358       .  S
C1952      C1953   1.407       .  A
C1952      F1957   1.358       .  S
C1953      C1954   1.407       .  A
C1954      F1955   1.358       .  S
C1959      C1960   1.407       .  A
C1959      C1964   1.395       .  A
C1959      F1966   1.358       .  S
C1960      C1961   1.406       .  A
C1961      C1962   1.399       .  A
C1961      F1968   1.358       .  S
C1962      C1963   1.408       .  A
C1962      F1967   1.357       .  S
C1963      C1964   1.408       .  A
C1964      F1965   1.358       .  S
C1969      C1970   1.408       .  A
C1969      C1974   1.399       .  A
C1969      F1976   1.358       .  S
C1970      C1971   1.408       .  A
C1971      C1972   1.400       .  A
C1971      F1978   1.358       .  S
C1972      C1973   1.408       .  A
C1972      F1977   1.357       .  S
C1973      C1974   1.410       .  A
C1974      F1975   1.358       .  S
C1979      C1980   1.408       .  A
C1979      C1984   1.397       .  A
C1979      F1986   1.358       .  S
C1980      C1981   1.409       .  A
C1981      C1982   1.401       .  A
C1981      F1988   1.358       .  S
C1982      C1983   1.408       .  A
C1982      F1987   1.358       .  S
C1983      C1984   1.408       .  A
C1984      F1985   1.358       .  S
C1989      C1990   1.409       .  A
C1989      C1994   1.399       .  A
C1989      F1996   1.358       .  S
C1990      C1991   1.408       .  A
C1991      C1992   1.397       .  A
C1991      F1998   1.358       .  S
C1992      C1993   1.407       .  A
C1992      F1997   1.358       .  S
C1993      C1994   1.408       .  A
C1994      F1995   1.358       .  S
C1999      C2000   1.409       .  A
C1999      C2004   1.400   1_565  A
C1999      F2006   1.358       .  S
C2000      C2001   1.410       .  A
C2001      C2002   1.400   1_565  A
C2001      F2008   1.357       .  S
C2002      C2003   1.407       .  A
C2002      F2007   1.358       .  S
C2003      C2004   1.408       .  A
C2004      F2005   1.358       .  S
C2009      C2010   1.409       .  A
C2009      C2014   1.402       .  A
C2009      F2016   1.358       .  S
C2010      C2011   1.408       .  A
C2011      C2012   1.398       .  A
C2011      F2018   1.358       .  S
C2012      C2013   1.407       .  A
C2012      F2017   1.358       .  S
C2013      C2014   1.408       .  A
C2014      F2015   1.358       .  S
C2019      C2020   1.410       .  A
C2019      C2024   1.405       .  A
C2019      F2026   1.358       .  S
C2020      C2021   1.405       .  A
C2021      C2022   1.393       .  A
C2021      F2028   1.358       .  S
C2022      C2023   1.408       .  A
C2022      F2027   1.358       .  S
C2023      C2024   1.410       .  A
C2024      F2025   1.358       .  S
C2029      C2030   1.408       .  A
C2029      C2034   1.399       .  A
C2029      F2036   1.358       .  S
C2030      C2031   1.408       .  A
C2031      C2032   1.397       .  A
C2031      F2038   1.358       .  S
C2032      C2033   1.408       .  A
C2032      F2037   1.358       .  S
C2033      C2034   1.407       .  A
C2034      F2035   1.358       .  S
C2039      C2040   1.409       .  A
C2039      C2044   1.402   1_545  A
C2039      F2046   1.358       .  S
C2040      C2041   1.409       .  A
C2041      C2042   1.398   1_545  A
C2041      F2048   1.358       .  S
C2042      C2043   1.408       .  A
C2042      F2047   1.358       .  S
C2043      C2044   1.409       .  A
C2044      F2045   1.358       .  S
C2049      C2050   1.408       .  A
C2049      C2054   1.399       .  A
C2049      F2056   1.358       .  S
C2050      C2051   1.408       .  A
C2051      C2052   1.397       .  A
C2051      F2058   1.358       .  S
C2052      C2053   1.407       .  A
C2052      F2057   1.358       .  S
C2053      C2054   1.408       .  A
C2054      F2055   1.358       .  S
C2059      C2060   1.407       .  A
C2059      C2064   1.397       .  A
C2059      F2066   1.358       .  S
C2060      C2061   1.406       .  A
C2061      C2062   1.400       .  A
C2061      F2068   1.358       .  S
C2062      C2063   1.408       .  A
C2062      F2067   1.357       .  S
C2063      C2064   1.408       .  A
C2064      F2065   1.358       .  S
C2069      C2070   1.407       .  A
C2069      C2074   1.395       .  A
C2069      F2076   1.358       .  S
C2070      C2071   1.409       .  A
C2071      C2072   1.399       .  A
C2071      F2078   1.358       .  S
C2072      C2073   1.408       .  A
C2072      F2077   1.358       .  S
C2073      C2074   1.407       .  A
C2074      F2075   1.358       .  S
C2079      C2080   1.409       .  A
C2079      C2084   1.400   1_655  A
C2079      F2086   1.358       .  S
C2080      C2081   1.407       .  A
C2081      C2082   1.399   1_655  A
C2081      F2088   1.358       .  S
C2082      C2083   1.409       .  A
C2082      F2087   1.357       .  S
C2083      C2084   1.409       .  A
C2084      F2085   1.358       .  S
C2089      C2090   1.409       .  A
C2089      C2094   1.398       .  A
C2089      F2096   1.358       .  S
C2090      C2091   1.409       .  A
C2091      C2092   1.400       .  A
C2091      F2098   1.358       .  S
C2092      C2093   1.408       .  A
C2092      F2097   1.358       .  S
C2093      C2094   1.408       .  A
C2094      F2095   1.358       .  S
C2099      C2100   1.408       .  A
C2099      C2104   1.397       .  A
C2099      F2106   1.358       .  S
C2100      C2101   1.408       .  A
C2101      C2102   1.398       .  A
C2101      F2108   1.358       .  S
C2102      C2103   1.408       .  A
C2102      F2107   1.358       .  S
C2103      C2104   1.408       .  A
C2104      F2105   1.358       .  S
C2109      C2110   1.409       .  A
C2109      C2114   1.397       .  A
C2109      F2116   1.358       .  S
C2110      C2111   1.408       .  A
C2111      C2112   1.401       .  A
C2111      F2118   1.357       .  S
C2112      C2113   1.408       .  A
C2112      F2117   1.358       .  S
C2113      C2114   1.408       .  A
C2114      F2115   1.358       .  S
C2119      C2120   1.406       .  A
C2119      C2124   1.392       .  A
C2119      F2126   1.358       .  S
C2120      C2121   1.408       .  A
C2121      C2122   1.401       .  A
C2121      F2128   1.358       .  S
C2122      C2123   1.409       .  A
C2122      F2127   1.358       .  S
C2123      C2124   1.408       .  A
C2124      F2125   1.358       .  S
C2129      C2130   1.409       .  A
C2129      C2134   1.399       .  A
C2129      F2136   1.358       .  S
C2130      C2131   1.408       .  A
C2131      C2132   1.398       .  A
C2131      F2138   1.357       .  S
C2132      C2133   1.406       .  A
C2132      F2137   1.357       .  S
C2133      C2134   1.409       .  A
C2134      F2135   1.359       .  S
C2139      C2140   1.408       .  A
C2139      C2144   1.397       .  A
C2139      F2146   1.358       .  S
C2140      C2141   1.408       .  A
C2141      C2142   1.396       .  A
C2141      F2148   1.358       .  S
C2142      C2143   1.409       .  A
C2142      F2147   1.358       .  S
C2143      C2144   1.407       .  A
C2144      F2145   1.358       .  S
C2149      C2150   1.408       .  A
C2149      C2154   1.399       .  A
C2149      F2156   1.358       .  S
C2150      C2151   1.408       .  A
C2151      C2152   1.397       .  A
C2151      F2158   1.358       .  S
C2152      C2153   1.408       .  A
C2152      F2157   1.358       .  S
C2153      C2154   1.408       .  A
C2154      F2155   1.358       .  S
C2159      C2160   1.408       .  A
C2159      C2164   1.399       .  A
C2159      F2166   1.358       .  S
C2160      C2161   1.409       .  A
C2161      C2162   1.399       .  A
C2161      F2168   1.358       .  S
C2162      C2163   1.408       .  A
C2162      F2167   1.358       .  S
C2163      C2164   1.408       .  A
C2164      F2165   1.358       .  S
C2169      C2170   1.409       .  A
C2169      C2174   1.400       .  A
C2169      F2176   1.358       .  S
C2170      C2171   1.409       .  A
C2171      C2172   1.397       .  A
C2171      F2178   1.358       .  S
C2172      C2173   1.408       .  A
C2172      F2177   1.358       .  S
C2173      C2174   1.407       .  A
C2174      F2175   1.358       .  S
C2179      C2180   1.410       .  A
C2179      C2184   1.401   1_556  A
C2179      F2186   1.358       .  S
C2180      C2181   1.408       .  A
C2181      C2182   1.400   1_556  A
C2181      F2188   1.358       .  S
C2182      C2183   1.408       .  A
C2182      F2187   1.358       .  S
C2183      C2184   1.410       .  A
C2184      F2185   1.358       .  S
C2189      C2190   1.409       .  A
C2189      C2194   1.401       .  A
C2189      F2196   1.358       .  S
C2190      C2191   1.409       .  A
C2191      C2192   1.400       .  A
C2191      F2198   1.358       .  S
C2192      C2193   1.408       .  A
C2192      F2197   1.358       .  S
C2193      C2194   1.409       .  A
C2194      F2195   1.358       .  S
C2199      C2200   1.409       .  A
C2199      C2204   1.398       .  A
C2199      F2206   1.358       .  S
C2200      C2201   1.409       .  A
C2201      C2202   1.401       .  A
C2201      F2208   1.358       .  S
C2202      C2203   1.408       .  A
C2202      F2207   1.358       .  S
C2203      C2204   1.407       .  A
C2204      F2205   1.358       .  S
C2209      C2210   1.409       .  A
C2209      C2214   1.397       .  A
C2209      F2216   1.358       .  S
C2210      C2211   1.411       .  A
C2211      C2212   1.407       .  A
C2211      F2218   1.358       .  S
C2212      C2213   1.410       .  A
C2212      F2217   1.358       .  S
C2213      C2214   1.408       .  A
C2214      F2215   1.358       .  S
C2219      C2220   1.409       .  A
C2219      C2224   1.399       .  A
C2219      F2226   1.358       .  S
C2220      C2221   1.408       .  A
C2221      C2222   1.398       .  A
C2221      F2228   1.358       .  S
C2222      C2223   1.408       .  A
C2222      F2227   1.358       .  S
C2223      C2224   1.408       .  A
C2224      F2225   1.358       .  S
C2229      C2230   1.409       .  A
C2229      C2234   1.401       .  A
C2229      F2236   1.358       .  S
C2230      C2231   1.407       .  A
C2231      C2232   1.397       .  A
C2231      F2238   1.358       .  S
C2232      C2233   1.409       .  A
C2232      F2237   1.358       .  S
C2233      C2234   1.409       .  A
C2234      F2235   1.358       .  S
C2239      C2240   1.408       .  A
C2239      C2244   1.398       .  A
C2239      F2246   1.358       .  S
C2240      C2241   1.409       .  A
C2241      C2242   1.401       .  A
C2241      F2248   1.358       .  S
C2242      C2243   1.409       .  A
C2242      F2247   1.358       .  S
C2243      C2244   1.408       .  A
C2244      F2245   1.358       .  S
C2249      C2250   1.409       .  A
C2249      C2254   1.403       .  A
C2249      F2256   1.358       .  S
C2250      C2251   1.409       .  A
C2251      C2252   1.397       .  A
C2251      F2258   1.358       .  S
C2252      C2253   1.407       .  A
C2252      F2257   1.358       .  S
C2253      C2254   1.408       .  A
C2254      F2255   1.358       .  S
C2259      C2260   1.407       .  A
C2259      C2264   1.396       .  A
C2259      F2266   1.358       .  S
C2260      C2261   1.409       .  A
C2261      C2262   1.401       .  A
C2261      F2268   1.358       .  S
C2262      C2263   1.408       .  A
C2262      F2267   1.358       .  S
C2263      C2264   1.408       .  A
C2264      F2265   1.358       .  S
C2269      C2270   1.408       .  A
C2269      C2274   1.399       .  A
C2269      F2276   1.358       .  S
C2270      C2271   1.410       .  A
C2271      C2272   1.400       .  A
C2271      F2278   1.358       .  S
C2272      C2273   1.408       .  A
C2272      F2277   1.358       .  S
C2273      C2274   1.409       .  A
C2274      F2275   1.358       .  S
C2279      C2280   1.409       .  A
C2279      C2284   1.399       .  A
C2279      F2286   1.358       .  S
C2280      C2281   1.408       .  A
C2281      C2282   1.403       .  A
C2281      F2288   1.358       .  S
C2282      C2283   1.410       .  A
C2282      F2287   1.358       .  S
C2283      C2284   1.408       .  A
C2284      F2285   1.358       .  S
C2289      C2290   1.408       .  A
C2289      C2294   1.397       .  A
C2289      F2296   1.358       .  S
C2290      C2291   1.408       .  A
C2291      C2292   1.400       .  A
C2291      F2298   1.358       .  S
C2292      C2293   1.408       .  A
C2292      F2297   1.358       .  S
C2293      C2294   1.408       .  A
C2294      F2295   1.358       .  S
C2299      C2300   1.408       .  A
C2299      C2304   1.398   1_556  A
C2299      F2306   1.358       .  S
C2300      C2301   1.410       .  A
C2301      C2302   1.403   1_556  A
C2301      F2308   1.358       .  S
C2302      C2303   1.408       .  A
C2302      F2307   1.358       .  S
C2303      C2304   1.408       .  A
C2304      F2305   1.358       .  S
C2309      C2310   1.410       .  A
C2309      C2314   1.403       .  A
C2309      F2316   1.357       .  S
C2310      C2311   1.409       .  A
C2311      C2312   1.399       .  A
C2311      F2318   1.358       .  S
C2312      C2313   1.409       .  A
C2312      F2317   1.358       .  S
C2313      C2314   1.408       .  A
C2314      F2315   1.358       .  S
C2319      C2320   1.408       .  A
C2319      C2324   1.398       .  A
C2319      F2326   1.358       .  S
C2320      C2321   1.409       .  A
C2321      C2322   1.403       .  A
C2321      F2328   1.358       .  S
C2322      C2323   1.409       .  A
C2322      F2327   1.358       .  S
C2323      C2324   1.409       .  A
C2324      F2325   1.358       .  S
C2329      C2330   1.408       .  A
C2329      C2334   1.400       .  A
C2329      F2336   1.358       .  S
C2330      C2331   1.409       .  A
C2331      C2332   1.402       .  A
C2331      F2338   1.358       .  S
C2332      C2333   1.409       .  A
C2332      F2337   1.358       .  S
C2333      C2334   1.409       .  A
C2334      F2335   1.358       .  S
C2339      C2340   1.410       .  A
C2339      C2344   1.403       .  A
C2339      F2346   1.358       .  S
C2340      C2341   1.407       .  A
C2341      C2342   1.395       .  A
C2341      F2348   1.358       .  S
C2342      C2343   1.408       .  A
C2342      F2347   1.358       .  S
C2343      C2344   1.409       .  A
C2344      F2345   1.358       .  S
C2349      C2350   1.409       .  A
C2349      C2354   1.401   1_655  A
C2349      F2356   1.358       .  S
C2350      C2351   1.407       .  A
C2351      C2352   1.396   1_655  A
C2351      F2358   1.358       .  S
C2352      C2353   1.408       .  A
C2352      F2357   1.358       .  S
C2353      C2354   1.408       .  A
C2354      F2355   1.358       .  S
C2359      C2360   1.406       .  A
C2359      C2364   1.398       .  A
C2359      F2366   1.358       .  S
C2360      C2361   1.407       .  A
C2361      C2362   1.397       .  A
C2361      F2368   1.358       .  S
C2362      C2363   1.409       .  A
C2362      F2367   1.358       .  S
C2363      C2364   1.408       .  A
C2364      F2365   1.358       .  S
C2369      C2370   1.408       .  A
C2369      C2374   1.399   1_556  A
C2369      F2376   1.358       .  S
C2370      C2371   1.409       .  A
C2371      C2372   1.401   1_556  A
C2371      F2378   1.358       .  S
C2372      C2373   1.409       .  A
C2372      F2377   1.358       .  S
C2373      C2374   1.408       .  A
C2374      F2375   1.358       .  S
C2379      C2380   1.409       .  A
C2379      C2384   1.400       .  A
C2379      F2386   1.358       .  S
C2380      C2381   1.409       .  A
C2381      C2382   1.401       .  A
C2381      F2388   1.358       .  S
C2382      C2383   1.409       .  A
C2382      F2387   1.358       .  S
C2383      C2384   1.409       .  A
C2384      F2385   1.358       .  S
C2389      C2390   1.409       .  A
C2389      C2394   1.399       .  A
C2389      F2396   1.358       .  S
C2390      C2391   1.408       .  A
C2391      C2392   1.398       .  A
C2391      F2398   1.358       .  S
C2392      C2393   1.408       .  A
C2392      F2397   1.358       .  S
C2393      C2394   1.409       .  A
C2394      F2395   1.358       .  S
C2399      C2400   1.408       .  A
C2399      C2404   1.400       .  A
C2399      F2406   1.358       .  S
C2400      C2401   1.407       .  A
C2401      C2402   1.397       .  A
C2401      F2408   1.358       .  S
C2402      C2403   1.410       .  A
C2402      F2407   1.358       .  S
C2403      C2404   1.408       .  A
C2404      F2405   1.358       .  S
C2409      C2410   1.409       .  A
C2409      C2414   1.402       .  A
C2409      F2416   1.358       .  S
C2410      C2411   1.408       .  A
C2411      C2412   1.398       .  A
C2411      F2418   1.358       .  S
C2412      C2413   1.409       .  A
C2412      F2417   1.358       .  S
C2413      C2414   1.409       .  A
C2414      F2415   1.358       .  S
C2419      C2420   1.408       .  A
C2419      C2424   1.402   1_556  A
C2419      F2426   1.358       .  S
C2420      C2421   1.407       .  A
C2421      C2422   1.399   1_556  A
C2421      F2428   1.358       .  S
C2422      C2423   1.410       .  A
C2422      F2427   1.358       .  S
C2423      C2424   1.409       .  A
C2424      F2425   1.358       .  S
C2429      C2430   1.407       .  A
C2429      C2434   1.398       .  A
C2429      F2436   1.358       .  S
C2430      C2431   1.410       .  A
C2431      C2432   1.399       .  A
C2431      F2438   1.358       .  S
C2432      C2433   1.408       .  A
C2432      F2437   1.358       .  S
C2433      C2434   1.408       .  A
C2434      F2435   1.357       .  S
C2439      C2440   1.409       .  A
C2439      C2444   1.400       .  A
C2439      F2446   1.358       .  S
C2440      C2441   1.408       .  A
C2441      C2442   1.400       .  A
C2441      F2448   1.358       .  S
C2442      C2443   1.409       .  A
C2442      F2447   1.358       .  S
C2443      C2444   1.408       .  A
C2444      F2445   1.358       .  S
C2449      C2450   1.409       .  A
C2449      C2454   1.400       .  A
C2449      F2456   1.358       .  S
C2450      C2451   1.407       .  A
C2451      C2452   1.395       .  A
C2451      F2458   1.358       .  S
C2452      C2453   1.406       .  A
C2452      F2457   1.358       .  S
C2453      C2454   1.407       .  A
C2454      F2455   1.358       .  S
C2459      C2460   1.409       .  A
C2459      C2464   1.402       .  A
C2459      F2466   1.358       .  S
C2460      C2461   1.408       .  A
C2461      C2462   1.398       .  A
C2461      F2468   1.358       .  S
C2462      C2463   1.408       .  A
C2462      F2467   1.358       .  S
C2463      C2464   1.409       .  A
C2464      F2465   1.358       .  S
C2469      C2470   1.408       .  A
C2469      C2474   1.397       .  A
C2469      F2476   1.358       .  S
C2470      C2471   1.408       .  A
C2471      C2472   1.400       .  A
C2471      F2478   1.358       .  S
C2472      C2473   1.408       .  A
C2472      F2477   1.358       .  S
C2473      C2474   1.408       .  A
C2474      F2475   1.358       .  S
C2479      C2480   1.410       .  A
C2479      C2484   1.404       .  A
C2479      F2486   1.358       .  S
C2480      C2481   1.409       .  A
C2481      C2482   1.401       .  A
C2481      F2488   1.358       .  S
C2482      C2483   1.409       .  A
C2482      F2487   1.358       .  S
C2483      C2484   1.410       .  A
C2484      F2485   1.358       .  S
C2489      C2490   1.408       .  A
C2489      C2494   1.401       .  A
C2489      F2496   1.357       .  S
C2490      C2491   1.409       .  A
C2491      C2492   1.399       .  A
C2491      F2498   1.358       .  S
C2492      C2493   1.409       .  A
C2492      F2497   1.358       .  S
C2493      C2494   1.408       .  A
C2494      F2495   1.358       .  S
C2499      C2500   1.409       .  A
C2499      C2504   1.399       .  A
C2499      F2506   1.358       .  S
C2500      C2501   1.408       .  A
C2501      C2502   1.398       .  A
C2501      F2508   1.357       .  S
C2502      C2503   1.407       .  A
C2502      F2507   1.358       .  S
C2503      C2504   1.409       .  A
C2504      F2505   1.358       .  S
C2509      C2510   1.408       .  A
C2509      C2514   1.400   1_655  A
C2509      F2516   1.358       .  S
C2510      C2511   1.408       .  A
C2511      C2512   1.397   1_655  A
C2511      F2518   1.358       .  S
C2512      C2513   1.407       .  A
C2512      F2517   1.358       .  S
C2513      C2514   1.409       .  A
C2514      F2515   1.358       .  S
C2519      C2520   1.410       .  A
C2519      C2524   1.403       .  A
C2519      F2526   1.358       .  S
C2520      C2521   1.408       .  A
C2521      C2522   1.398       .  A
C2521      F2528   1.357       .  S
C2522      C2523   1.407       .  A
C2522      F2527   1.358       .  S
C2523      C2524   1.409       .  A
C2524      F2525   1.358       .  S
C2529      C2530   1.410       .  A
C2529      C2534   1.403       .  A
C2529      F2536   1.358       .  S
C2530      C2531   1.408       .  A
C2531      C2532   1.399       .  A
C2531      F2538   1.358       .  S
C2532      C2533   1.408       .  A
C2532      F2537   1.357       .  S
C2533      C2534   1.410       .  A
C2534      F2535   1.358       .  S
C2539      C2540   1.408       .  A
C2539      C2544   1.400       .  A
C2539      F2546   1.358       .  S
C2540      C2541   1.409       .  A
C2541      C2542   1.398       .  A
C2541      F2548   1.358       .  S
C2542      C2543   1.408       .  A
C2542      F2547   1.358       .  S
C2543      C2544   1.408       .  A
C2544      F2545   1.358       .  S
C2549      C2550   1.408       .  A
C2549      C2554   1.401       .  A
C2549      F2556   1.358       .  S
C2550      C2551   1.407       .  A
C2551      C2552   1.396       .  A
C2551      F2558   1.358       .  S
C2552      C2553   1.408       .  A
C2552      F2557   1.358       .  S
C2553      C2554   1.409       .  A
C2554      F2555   1.358       .  S
C2559      C2560   1.410       .  A
C2559      C2564   1.405       .  A
C2559      F2566   1.358       .  S
C2560      C2561   1.407       .  A
C2561      C2562   1.395       .  A
C2561      F2568   1.358       .  S
C2562      C2563   1.408       .  A
C2562      F2567   1.357       .  S
C2563      C2564   1.410       .  A
C2564      F2565   1.358       .  S
C2569      C2570   1.408       .  A
C2569      C2574   1.398       .  A
C2569      F2576   1.358       .  S
C2570      C2571   1.408       .  A
C2571      C2572   1.399       .  A
C2571      F2578   1.358       .  S
C2572      C2573   1.407       .  A
C2572      F2577   1.358       .  S
C2573      C2574   1.408       .  A
C2574      F2575   1.358       .  S
C2579      C2580   1.410       .  A
C2579      C2584   1.400       .  A
C2579      F2586   1.358       .  S
C2580      C2581   1.408       .  A
C2581      C2582   1.400       .  A
C2581      F2588   1.358       .  S
C2582      C2583   1.409       .  A
C2582      F2587   1.358       .  S
C2583      C2584   1.408       .  A
C2584      F2585   1.358       .  S
C2589      C2590   1.409       .  A
C2589      C2594   1.404       .  A
C2589      F2596   1.358       .  S
C2590      C2591   1.408       .  A
C2591      C2592   1.399       .  A
C2591      F2598   1.358       .  S
C2592      C2593   1.409       .  A
C2592      F2597   1.358       .  S
C2593      C2594   1.410       .  A
C2594      F2595   1.358       .  S
C2599      C2600   1.408       .  A
C2599      C2604   1.394       .  A
C2599      F2606   1.358       .  S
C2600      C2601   1.408       .  A
C2601      C2602   1.399       .  A
C2601      F2608   1.358       .  S
C2602      C2603   1.408       .  A
C2602      F2607   1.358       .  S
C2603      C2604   1.407       .  A
C2604      F2605   1.358       .  S
C2609      C2610   1.409       .  A
C2609      C2614   1.401   1_545  A
C2609      F2616   1.358       .  S
C2610      C2611   1.408       .  A
C2611      C2612   1.398   1_545  A
C2611      F2618   1.358       .  S
C2612      C2613   1.408       .  A
C2612      F2617   1.358       .  S
C2613      C2614   1.409       .  A
C2614      F2615   1.358       .  S
C2619      C2620   1.409       .  A
C2619      C2624   1.397       .  A
C2619      F2626   1.358       .  S
C2620      C2621   1.407       .  A
C2621      C2622   1.397       .  A
C2621      F2628   1.358       .  S
C2622      C2623   1.406       .  A
C2622      F2627   1.358       .  S
C2623      C2624   1.407       .  A
C2624      F2625   1.358       .  S
C2629      C2630   1.408       .  A
C2629      C2634   1.397   1_556  A
C2629      F2636   1.358       .  S
C2630      C2631   1.409       .  A
C2631      C2632   1.398   1_556  A
C2631      F2638   1.358       .  S
C2632      C2633   1.408       .  A
C2632      F2637   1.358       .  S
C2633      C2634   1.407       .  A
C2634      F2635   1.358       .  S
C2639      C2640   1.409       .  A
C2639      C2644   1.400       .  A
C2639      F2646   1.358       .  S
C2640      C2641   1.408       .  A
C2641      C2642   1.399       .  A
C2641      F2648   1.358       .  S
C2642      C2643   1.408       .  A
C2642      F2647   1.358       .  S
C2643      C2644   1.408       .  A
C2644      F2645   1.358       .  S
C2649      C2650   1.408       .  A
C2649      C2654   1.399       .  A
C2649      F2656   1.357       .  S
C2650      C2651   1.408       .  A
C2651      C2652   1.398       .  A
C2651      F2658   1.358       .  S
C2652      C2653   1.409       .  A
C2652      F2657   1.358       .  S
C2653      C2654   1.407       .  A
C2654      F2655   1.358       .  S
C2659      C2660   1.408       .  A
C2659      C2664   1.401       .  A
C2659      F2666   1.358       .  S
C2660      C2661   1.408       .  A
C2661      C2662   1.396       .  A
C2661      F2668   1.358       .  S
C2662      C2663   1.408       .  A
C2662      F2667   1.358       .  S
C2663      C2664   1.408       .  A
C2664      F2665   1.358       .  S
C2669      C2670   1.409       .  A
C2669      C2674   1.403       .  A
C2669      F2676   1.358       .  S
C2670      C2671   1.409       .  A
C2671      C2672   1.398       .  A
C2671      F2678   1.358       .  S
C2672      C2673   1.408       .  A
C2672      F2677   1.358       .  S
C2673      C2674   1.409       .  A
C2674      F2675   1.358       .  S
C2679      C2680   1.408       .  A
C2679      C2684   1.396       .  A
C2679      F2686   1.358       .  S
C2680      C2681   1.409       .  A
C2681      C2682   1.402       .  A
C2681      F2688   1.358       .  S
C2682      C2683   1.409       .  A
C2682      F2687   1.358       .  S
C2683      C2684   1.408       .  A
C2684      F2685   1.358       .  S
C2689      C2690   1.408       .  A
C2689      C2694   1.400       .  A
C2689      F2696   1.358       .  S
C2690      C2691   1.407       .  A
C2691      C2692   1.397       .  A
C2691      F2698   1.358       .  S
C2692      C2693   1.407       .  A
C2692      F2697   1.358       .  S
C2693      C2694   1.408       .  A
C2694      F2695   1.358       .  S
C2699      C2700   1.409       .  A
C2699      C2704   1.400   1_556  A
C2699      F2706   1.358       .  S
C2700      C2701   1.409       .  A
C2701      C2702   1.399   1_556  A
C2701      F2708   1.358       .  S
C2702      C2703   1.407       .  A
C2702      F2707   1.358       .  S
C2703      C2704   1.409       .  A
C2704      F2705   1.358       .  S
C2709      C2710   1.408       .  A
C2709      C2714   1.400       .  A
C2709      F2716   1.358       .  S
C2710      C2711   1.409       .  A
C2711      C2712   1.402       .  A
C2711      F2718   1.358       .  S
C2712      C2713   1.410       .  A
C2712      F2717   1.358       .  S
C2713      C2714   1.408       .  A
C2714      F2715   1.357       .  S
C2719      C2720   1.407       .  A
C2719      C2724   1.397       .  A
C2719      F2726   1.358       .  S
C2720      C2721   1.407       .  A
C2721      C2722   1.396       .  A
C2721      F2728   1.358       .  S
C2722      C2723   1.407       .  A
C2722      F2727   1.358       .  S
C2723      C2724   1.408       .  A
C2724      F2725   1.358       .  S
C2729      C2730   1.409       .  A
C2729      C2734   1.401       .  A
C2729      F2736   1.358       .  S
C2730      C2731   1.407       .  A
C2731      C2732   1.401       .  A
C2731      F2738   1.357       .  S
C2732      C2733   1.409       .  A
C2732      F2737   1.357       .  S
C2733      C2734   1.410       .  A
C2734      F2735   1.358       .  S
C2739      C2740   1.408       .  A
C2739      C2744   1.402       .  A
C2739      F2746   1.358       .  S
C2740      C2741   1.409       .  A
C2741      C2742   1.398       .  A
C2741      F2748   1.358       .  S
C2742      C2743   1.408       .  A
C2742      F2747   1.358       .  S
C2743      C2744   1.409       .  A
C2744      F2745   1.357       .  S
C2749      C2750   1.409       .  A
C2749      C2754   1.397       .  A
C2749      F2756   1.358       .  S
C2750      C2751   1.408       .  A
C2751      C2752   1.403       .  A
C2751      F2758   1.358       .  S
C2752      C2753   1.409       .  A
C2752      F2757   1.358       .  S
C2753      C2754   1.408       .  A
C2754      F2755   1.358       .  S
C2759      C2760   1.409       .  A
C2759      C2764   1.402       .  A
C2759      F2766   1.358       .  S
C2760      C2761   1.409       .  A
C2761      C2762   1.403       .  A
C2761      F2768   1.358       .  S
C2762      C2763   1.410       .  A
C2762      F2767   1.358       .  S
C2763      C2764   1.410       .  A
C2764      F2765   1.357       .  S
C2769      C2770   1.408       .  A
C2769      C2774   1.397       .  A
C2769      F2776   1.357       .  S
C2770      C2771   1.409       .  A
C2771      C2772   1.401       .  A
C2771      F2778   1.358       .  S
C2772      C2773   1.409       .  A
C2772      F2777   1.358       .  S
C2773      C2774   1.407       .  A
C2774      F2775   1.358       .  S
C2779      C2780   1.408       .  A
C2779      C2784   1.400       .  A
C2779      F2786   1.358       .  S
C2780      C2781   1.409       .  A
C2781      C2782   1.398       .  A
C2781      F2788   1.358       .  S
C2782      C2783   1.408       .  A
C2782      F2787   1.358       .  S
C2783      C2784   1.409       .  A
C2784      F2785   1.358       .  S
C2789      C2790   1.408       .  A
C2789      C2794   1.401       .  A
C2789      F2796   1.357       .  S
C2790      C2791   1.408       .  A
C2791      C2792   1.397       .  A
C2791      F2798   1.358       .  S
C2792      C2793   1.409       .  A
C2792      F2797   1.358       .  S
C2793      C2794   1.408       .  A
C2794      F2795   1.358       .  S
C2799      C2800   1.409       .  A
C2799      C2804   1.399       .  A
C2799      F2806   1.358       .  S
C2800      C2801   1.409       .  A
C2801      C2802   1.399       .  A
C2801      F2808   1.358       .  S
C2802      C2803   1.408       .  A
C2802      F2807   1.358       .  S
C2803      C2804   1.408       .  A
C2804      F2805   1.358       .  S
C2809      C2810   1.408       .  A
C2809      C2814   1.398       .  A
C2809      F2816   1.358       .  S
C2810      C2811   1.410       .  A
C2811      C2812   1.402       .  A
C2811      F2818   1.358       .  S
C2812      C2813   1.409       .  A
C2812      F2817   1.358       .  S
C2813      C2814   1.408       .  A
C2814      F2815   1.358       .  S
C2819      C2820   1.410       .  A
C2819      C2824   1.403       .  A
C2819      F2826   1.358       .  S
C2820      C2821   1.408       .  A
C2821      C2822   1.398       .  A
C2821      F2828   1.358       .  S
C2822      C2823   1.408       .  A
C2822      F2827   1.358       .  S
C2823      C2824   1.410       .  A
C2824      F2825   1.358       .  S
C2829      C2830   1.407       .  A
C2829      C2834   1.399       .  A
C2829      F2836   1.358       .  S
C2830      C2831   1.408       .  A
C2831      C2832   1.395       .  A
C2831      F2838   1.358       .  S
C2832      C2833   1.407       .  A
C2832      F2837   1.358       .  S
C2833      C2834   1.408       .  A
C2834      F2835   1.358       .  S
C2839      C2840   1.409       .  A
C2839      C2844   1.400   1_565  A
C2839      F2846   1.358       .  S
C2840      C2841   1.408       .  A
C2841      C2842   1.400   1_565  A
C2841      F2848   1.358       .  S
C2842      C2843   1.409       .  A
C2842      F2847   1.358       .  S
C2843      C2844   1.409       .  A
C2844      F2845   1.358       .  S
C2849      C2850   1.409       .  A
C2849      C2854   1.400       .  A
C2849      F2856   1.358       .  S
C2850      C2851   1.410       .  A
C2851      C2852   1.402       .  A
C2851      F2858   1.358       .  S
C2852      C2853   1.408       .  A
C2852      F2857   1.358       .  S
C2853      C2854   1.408       .  A
C2854      F2855   1.358       .  S
C2859      C2860   1.408       .  A
C2859      C2864   1.396       .  A
C2859      F2866   1.358       .  S
C2860      C2861   1.409       .  A
C2861      C2862   1.402       .  A
C2861      F2868   1.358       .  S
C2862      C2863   1.408       .  A
C2862      F2867   1.358       .  S
C2863      C2864   1.408       .  A
C2864      F2865   1.358       .  S
C2869      C2870   1.408       .  A
C2869      C2874   1.398   1_545  A
C2869      F2876   1.358       .  S
C2870      C2871   1.408       .  A
C2871      C2872   1.398   1_545  A
C2871      F2878   1.358       .  S
C2872      C2873   1.408       .  A
C2872      F2877   1.358       .  S
C2873      C2874   1.408       .  A
C2874      F2875   1.358       .  S
C2879      C2880   1.409       .  A
C2879      C2884   1.402       .  A
C2879      F2886   1.358       .  S
C2880      C2881   1.408       .  A
C2881      C2882   1.397       .  A
C2881      F2888   1.358       .  S
C2882      C2883   1.407       .  A
C2882      F2887   1.358       .  S
C2883      C2884   1.409       .  A
C2884      F2885   1.358       .  S
C2889      C2890   1.408       .  A
C2889      C2894   1.404       .  A
C2889      F2896   1.358       .  S
C2890      C2891   1.407       .  A
C2891      C2892   1.395       .  A
C2891      F2898   1.358       .  S
C2892      C2893   1.408       .  A
C2892      F2897   1.358       .  S
C2893      C2894   1.410       .  A
C2894      F2895   1.358       .  S
C2899      C2900   1.408       .  A
C2899      C2904   1.397       .  A
C2899      F2906   1.358       .  S
C2900      C2901   1.407       .  A
C2901      C2902   1.400       .  A
C2901      F2908   1.358       .  S
C2902      C2903   1.409       .  A
C2902      F2907   1.357       .  S
C2903      C2904   1.408       .  A
C2904      F2905   1.358       .  S
C2909      C2910   1.407       .  A
C2909      C2914   1.396   1_545  A
C2909      F2916   1.358       .  S
C2910      C2911   1.408       .  A
C2911      C2912   1.405   1_545  A
C2911      F2918   1.358       .  S
C2912      C2913   1.409       .  A
C2912      F2917   1.358       .  S
C2913      C2914   1.408       .  A
C2914      F2915   1.358       .  S
C2919      C2920   1.409       .  A
C2919      C2924   1.399       .  A
C2919      F2926   1.358       .  S
C2920      C2921   1.409       .  A
C2921      C2922   1.401       .  A
C2921      F2928   1.358       .  S
C2922      C2923   1.408       .  A
C2922      F2927   1.358       .  S
C2923      C2924   1.409       .  A
C2924      F2925   1.358       .  S
C2929      C2930   1.409       .  A
C2929      C2934   1.400       .  A
C2929      F2936   1.358       .  S
C2930      C2931   1.409       .  A
C2931      C2932   1.402       .  A
C2931      F2938   1.357       .  S
C2932      C2933   1.409       .  A
C2932      F2937   1.358       .  S
C2933      C2934   1.409       .  A
C2934      F2935   1.358       .  S
C2939      C2940   1.409       .  A
C2939      C2944   1.402       .  A
C2939      F2946   1.357       .  S
C2940      C2941   1.410       .  A
C2941      C2942   1.400       .  A
C2941      F2948   1.358       .  S
C2942      C2943   1.408       .  A
C2942      F2947   1.358       .  S
C2943      C2944   1.408       .  A
C2944      F2945   1.358       .  S
C2949      C2950   1.408       .  A
C2949      C2954   1.399   1_655  A
C2949      F2956   1.358       .  S
C2950      C2951   1.409       .  A
C2951      C2952   1.401   1_655  A
C2951      F2958   1.358       .  S
C2952      C2953   1.409       .  A
C2952      F2957   1.358       .  S
C2953      C2954   1.409       .  A
C2954      F2955   1.358       .  S
C2959      C2960   1.410       .  A
C2959      C2964   1.402       .  A
C2959      F2966   1.358       .  S
C2960      C2961   1.408       .  A
C2961      C2962   1.399       .  A
C2961      F2968   1.357       .  S
C2962      C2963   1.407       .  A
C2962      F2967   1.357       .  S
C2963      C2964   1.409       .  A
C2964      F2965   1.358       .  S
C2969      C2970   1.409       .  A
C2969      C2974   1.401       .  A
C2969      F2976   1.358       .  S
C2970      C2971   1.408       .  A
C2971      C2972   1.397       .  A
C2971      F2978   1.358       .  S
C2972      C2973   1.409       .  A
C2972      F2977   1.358       .  S
C2973      C2974   1.408       .  A
C2974      F2975   1.358       .  S
C2979      C2980   1.409       .  A
C2979      C2984   1.403       .  A
C2979      F2986   1.358       .  S
C2980      C2981   1.408       .  A
C2981      C2982   1.395       .  A
C2981      F2988   1.358       .  S
C2982      C2983   1.406       .  A
C2982      F2987   1.358       .  S
C2983      C2984   1.409       .  A
C2984      F2985   1.358       .  S
C2989      C2990   1.409       .  A
C2989      C2994   1.402       .  A
C2989      F2996   1.358       .  S
C2990      C2991   1.409       .  A
C2991      C2992   1.398       .  A
C2991      F2998   1.358       .  S
C2992      C2993   1.409       .  A
C2992      F2997   1.358       .  S
C2993      C2994   1.409       .  A
C2994      F2995   1.357       .  S
C2999      C3000   1.408       .  A
C2999      C3004   1.401   1_556  A
C2999      F3006   1.358       .  S
C3000      C3001   1.408       .  A
C3001      C3002   1.398   1_556  A
C3001      F3008   1.358       .  S
C3002      C3003   1.408       .  A
C3002      F3007   1.358       .  S
C3003      C3004   1.408       .  A
C3004      F3005   1.358       .  S
C3009      C3010   1.408       .  A
C3009      C3014   1.398       .  A
C3009      F3016   1.358       .  S
C3010      C3011   1.407       .  A
C3011      C3012   1.398       .  A
C3011      F3018   1.358       .  S
C3012      C3013   1.409       .  A
C3012      F3017   1.358       .  S
C3013      C3014   1.408       .  A
C3014      F3015   1.358       .  S
C3019      C3020   1.409       .  A
C3019      C3024   1.397       .  A
C3019      F3026   1.358       .  S
C3020      C3021   1.408       .  A
C3021      C3022   1.400       .  A
C3021      F3028   1.358       .  S
C3022      C3023   1.409       .  A
C3022      F3027   1.358       .  S
C3023      C3024   1.408       .  A
C3024      F3025   1.358       .  S
C3029      C3030   1.409       .  A
C3029      C3034   1.398       .  A
C3029      F3036   1.358       .  S
C3030      C3031   1.409       .  A
C3031      C3032   1.403       .  A
C3031      F3038   1.358       .  S
C3032      C3033   1.409       .  A
C3032      F3037   1.358       .  S
C3033      C3034   1.408       .  A
C3034      F3035   1.358       .  S
C3039      C3040   1.409       .  A
C3039      C3044   1.400       .  A
C3039      F3046   1.358       .  S
C3040      C3041   1.407       .  A
C3041      C3042   1.398       .  A
C3041      F3048   1.357       .  S
C3042      C3043   1.407       .  A
C3042      F3047   1.357       .  S
C3043      C3044   1.409       .  A
C3044      F3045   1.358       .  S
C3049      C3050   1.405       .  A
C3049      C3054   1.392       .  A
C3049      F3056   1.358       .  S
C3050      C3051   1.409       .  A
C3051      C3052   1.401       .  A
C3051      F3058   1.358       .  S
C3052      C3053   1.408       .  A
C3052      F3057   1.358       .  S
C3053      C3054   1.408       .  A
C3054      F3055   1.358       .  S
C3059      C3060   1.409       .  A
C3059      C3064   1.400   1_556  A
C3059      F3066   1.358       .  S
C3060      C3061   1.409       .  A
C3061      C3062   1.400   1_556  A
C3061      F3068   1.358       .  S
C3062      C3063   1.408       .  A
C3062      F3067   1.358       .  S
C3063      C3064   1.408       .  A
C3064      F3065   1.358       .  S
C3069      C3070   1.408       .  A
C3069      C3074   1.400       .  A
C3069      F3076   1.358       .  S
C3070      C3071   1.408       .  A
C3071      C3072   1.399       .  A
C3071      F3078   1.358       .  S
C3072      C3073   1.409       .  A
C3072      F3077   1.358       .  S
C3073      C3074   1.409       .  A
C3074      F3075   1.358       .  S
C3079      C3080   1.408       .  A
C3079      C3084   1.402       .  A
C3079      F3086   1.358       .  S
C3080      C3081   1.410       .  A
C3081      C3082   1.400       .  A
C3081      F3088   1.358       .  S
C3082      C3083   1.408       .  A
C3082      F3087   1.358       .  S
C3083      C3084   1.410       .  A
C3084      F3085   1.358       .  S
C3089      C3090   1.407       .  A
C3089      C3094   1.396       .  A
C3089      F3096   1.358       .  S
C3090      C3091   1.410       .  A
C3091      C3092   1.406       .  A
C3091      F3098   1.358       .  S
C3092      C3093   1.410       .  A
C3092      F3097   1.358       .  S
C3093      C3094   1.409       .  A
C3094      F3095   1.358       .  S
C3099      C3100   1.408       .  A
C3099      C3104   1.398       .  A
C3099      F3106   1.358       .  S
C3100      C3101   1.408       .  A
C3101      C3102   1.398       .  A
C3101      F3108   1.358       .  S
C3102      C3103   1.408       .  A
C3102      F3107   1.358       .  S
C3103      C3104   1.408       .  A
C3104      F3105   1.358       .  S
C3109      C3110   1.408       .  A
C3109      C3114   1.398   1_655  A
C3109      F3116   1.358       .  S
C3110      C3111   1.409       .  A
C3111      C3112   1.403   1_655  A
C3111      F3118   1.358       .  S
C3112      C3113   1.410       .  A
C3112      F3117   1.358       .  S
C3113      C3114   1.408       .  A
C3114      F3115   1.358       .  S
C3119      C3120   1.408       .  A
C3119      C3124   1.397       .  A
C3119      F3126   1.358       .  S
C3120      C3121   1.409       .  A
C3121      C3122   1.400       .  A
C3121      F3128   1.357       .  S
C3122      C3123   1.407       .  A
C3122      F3127   1.357       .  S
C3123      C3124   1.409       .  A
C3124      F3125   1.358       .  S
C3129      C3130   1.407       .  A
C3129      C3134   1.398       .  A
C3129      F3136   1.358       .  S
C3130      C3131   1.409       .  A
C3131      C3132   1.401       .  A
C3131      F3138   1.358       .  S
C3132      C3133   1.407       .  A
C3132      F3137   1.358       .  S
C3133      C3134   1.408       .  A
C3134      F3135   1.358       .  S
C3139      C3140   1.409       .  A
C3139      C3144   1.401       .  A
C3139      F3146   1.358       .  S
C3140      C3141   1.407       .  A
C3141      C3142   1.399       .  A
C3141      F3148   1.358       .  S
C3142      C3143   1.408       .  A
C3142      F3147   1.358       .  S
C3143      C3144   1.409       .  A
C3144      F3145   1.358       .  S
C3149      C3150   1.409       .  A
C3149      C3154   1.404       .  A
C3149      F3156   1.358       .  S
C3150      C3151   1.409       .  A
C3151      C3152   1.399       .  A
C3151      F3158   1.358       .  S
C3152      C3153   1.408       .  A
C3152      F3157   1.358       .  S
C3153      C3154   1.410       .  A
C3154      F3155   1.358       .  S
C3159      C3160   1.408       .  A
C3159      C3164   1.400       .  A
C3159      F3166   1.358       .  S
C3160      C3161   1.408       .  A
C3161      C3162   1.400       .  A
C3161      F3168   1.358       .  S
C3162      C3163   1.408       .  A
C3162      F3167   1.357       .  S
C3163      C3164   1.410       .  A
C3164      F3165   1.358       .  S
