geometry optimzed in LAMMPS
_audit_creation_date              2020-11-30 
_audit_creation_method            'lammps2cif' 
_symmetry_space_group_name_H-M    'P1' 
_symmetry_Int_Tables_number       1 
_symmetry_cell_setting            triclinic 
loop_ 
_symmetry_equiv_pos_as_xyz 
  x,y,z 
_cell_length_a                    34.05767444 
_cell_length_b                    34.21695462116004 
_cell_length_c                    25.099182410761014 
_cell_angle_alpha                 92.4716883556587 
_cell_angle_beta                  87.56550379189466 
_cell_angle_gamma                 122.31233939699946 
loop_ 
_atom_site_label 
_atom_site_type_symbol 
_atom_site_fract_x 
_atom_site_fract_y 
_atom_site_fract_z 
_atom_site_charge 
C1          C  0.32979184  0.16657278  0.05845582     0.29800
C2          C  0.33592740  0.15979663  0.95073996     0.29800
C3          C  0.35754565  0.14526046  0.03639985    -0.06400
C4          C  0.28278112  0.13711516  0.03016485    -0.07200
C5          C  0.35294752  0.21300926  0.02924319    -0.07100
C6          C  0.36071574  0.14158536  0.98120623    -0.06400
C7          C  0.28676141  0.13235133  0.97549449    -0.07200
C8          C  0.35596691  0.20851793  0.97442427    -0.07100
C9          C  0.38231647  0.11744749  0.97038356    -0.32500
N10         N  0.39323191  0.10785565  0.01741738     0.14000
C11         C  0.37822733  0.12440975  0.05795745    -0.32500
H12         H  0.38104154  0.12041289  0.09991439     0.16000
C13         C  0.24289089  0.10547181  0.95611796    -0.31500
N14         N  0.21177881  0.09702833  0.99620109     0.12700
C15         C  0.23547687  0.11620503  0.04203130    -0.31500
C16         C  0.37827111  0.25164601  0.95343586    -0.31800
N17         N  0.38863428  0.28312855  0.99354535     0.13200
H18         H  0.38640620  0.25957817  0.91159708     0.15900
C19         C  0.37292706  0.26017166  0.04033515    -0.31800
H20         H  0.37610096  0.27657429  0.07909189     0.15900
H21         H  0.21970731  0.11651001  0.08027424     0.15900
H22         H  0.38831633  0.10612777  0.93170595     0.15900
H23         H  0.23402325  0.09498889  0.91483299     0.15900
C24         C  0.33928456  0.16631193  0.55606629     0.29800
C25         C  0.34617350  0.15662763  0.44864629     0.29800
C26         C  0.35869457  0.13630077  0.53641503    -0.06400
C27         C  0.29229089  0.14247696  0.52668339    -0.07200
C28         C  0.36956158  0.21151432  0.52612553    -0.07100
C29         C  0.36280694  0.13228664  0.48168884    -0.06400
C30         C  0.29674064  0.13846191  0.47145966    -0.07200
C31         C  0.37259733  0.20645935  0.47137352    -0.07100
C32         C  0.38351750  0.10745972  0.47154211    -0.32500
N33         N  0.39135293  0.09569869  0.51894993     0.14000
C34         C  0.37595557  0.11241348  0.55882467    -0.32500
H35         H  0.37848384  0.10840582  0.60083124     0.16000
C36         C  0.25324201  0.11782816  0.45075679    -0.31500
N37         N  0.22172027  0.10723309  0.49106000     0.12700
C38         C  0.24474454  0.12167221  0.53786599    -0.31500
C39         C  0.39203713  0.24970082  0.45078247    -0.31800
N40         N  0.40302707  0.28105354  0.49117762     0.13200
H41         H  0.39533208  0.25795119  0.40907394     0.15900
C42         C  0.38860705  0.25820142  0.53779753    -0.31800
H43         H  0.38996185  0.27389628  0.57659974     0.15900
H44         H  0.22770681  0.11603070  0.57658990     0.15900
H45         H  0.39329368  0.09959144  0.43288182     0.15900
H46         H  0.24470939  0.11112014  0.40900006     0.15900
N47         N  0.47227924  0.48499633  0.07619547    -0.06400
N48         N  0.46019517  0.46944292  0.12571638    -0.58500
N49         N  0.46896960  0.06932770  0.01747304    -0.06000
N50         N  0.46285395  0.10436354  0.02094710    -0.60600
N51         N  0.42870599  0.02974631  0.01689156    -0.05600
N52         N  0.39418442  0.03691766  0.01983836    -0.58500
N53         N  0.01240857  0.02471759  0.07637976    -0.05300
N54         N  0.02822042  0.03652788  0.12581733    -0.61400
C55         C  0.49564416  0.50154919  0.15664392     0.95800
C56         C  0.41614106  0.08353038  0.02352879     0.95600
N57         N  0.06309254  0.10844834  0.88859644    -0.06600
N58         N  0.07796199  0.14508123  0.85863744    -0.59100
N59         N  0.09812327  0.07020676  0.98824345    -0.04700
N60         N  0.13342480  0.08148503  0.01937542    -0.60300
N61         N  0.10661627  0.06039648  0.93933051    -0.06600
N62         N  0.14686941  0.06367951  0.93671880    -0.59300
N63         N  0.05345621  0.11697565  0.93760821    -0.04300
N64         N  0.06064873  0.15872453  0.94156938    -0.60400
Mn65       Mn  0.03424520  0.07092277  0.00570729     1.18400
C66         C  0.07562111  0.17586134  0.89242519     0.97900
C67         C  0.16329231  0.07655680  0.98652973     0.98600
N68         N  0.38056001  0.44558591  0.93618243    -0.06600
N69         N  0.33853521  0.43818101  0.93996009    -0.62900
N70         N  0.43524064  0.39074386  0.93853327    -0.05400
N71         N  0.42797288  0.34891180  0.93526542    -0.63600
N72         N  0.42523683  0.39947485  0.98729692    -0.06100
N73         N  0.41005342  0.36297947  0.01759102    -0.63200
N74         N  0.38911697  0.43563675  0.88732872    -0.05000
N75         N  0.35220260  0.42031149  0.85735973    -0.63900
Mn76       Mn  0.42621124  0.46404662  0.00482864     1.10700
C77         C  0.32123491  0.42275182  0.89091771     0.99100
C78         C  0.41258236  0.33193271  0.98450833     0.99200
N79         N  0.05920542  0.47861523  0.85651522    -0.06100
N80         N  0.09389328  0.47199490  0.84976496    -0.61500
N81         N  0.47586563  0.48274449  0.79815096    -0.05400
N82         N  0.46183489  0.46980829  0.74810961    -0.58200
N83         N  0.01567512  0.02270947  0.79875994    -0.06700
N84         N  0.02907508  0.03713720  0.74896207    -0.61100
N85         N  0.01920922  0.43886859  0.85669422    -0.05700
N86         N  0.02568936  0.40424219  0.85001032    -0.58200
Mn87       Mn  0.06161572  0.04368572  0.87023597     1.20200
Mn88       Mn  0.45386395  0.43648330  0.86956496     1.10100
Cl89       Cl  0.49371798  0.00376612  0.93763601    -0.86200
C90         C  0.07233240  0.42551726  0.84453015     0.96100
C91         C  0.99486550  0.00412356  0.71744525     0.95900
N92         N  0.47804553  0.48174260  0.57501077    -0.06400
N93         N  0.46470504  0.46775773  0.62495864    -0.58500
N94         N  0.47145016  0.06303124  0.51571837    -0.06000
N95         N  0.46324949  0.09660317  0.52108507    -0.60600
N96         N  0.43218573  0.02250647  0.51609666    -0.05600
N97         N  0.39638090  0.02749217  0.52171738    -0.58500
N98         N  0.01747531  0.02233228  0.57544312    -0.05300
N99         N  0.03100835  0.03610121  0.62551121    -0.61000
C100        C  0.49828101  0.50165217  0.65632855     0.95800
C101        C  0.41640286  0.07380135  0.52594155     0.95600
N102        N  0.06665338  0.10514283  0.38621459    -0.06600
N103        N  0.08199273  0.14193788  0.35640633    -0.59100
N104        N  0.10429822  0.07017260  0.48570825    -0.04700
N105        N  0.14129155  0.08569706  0.51570114    -0.60300
N106        N  0.11309146  0.06052717  0.43675446    -0.06600
N107        N  0.15534324  0.06838148  0.43304286    -0.59300
N108        N  0.05640812  0.11337897  0.43507184    -0.04300
N109        N  0.06373313  0.15518497  0.43904927    -0.60400
Mn110      Mn  0.03837273  0.06774778  0.50359342     1.18400
C111        C  0.07931869  0.17254730  0.39008718     0.97900
C112        C  0.17260315  0.08368759  0.48219067     0.98600
N113        N  0.38511679  0.43802494  0.43564562    -0.06600
N114        N  0.34254540  0.42916316  0.43998203    -0.62900
N115        N  0.44368086  0.38737775  0.43656395    -0.05400
N116        N  0.43854667  0.34650154  0.43291816    -0.63600
N117        N  0.43375460  0.39553294  0.48562535    -0.06100
N118        N  0.42065148  0.35946641  0.51584701    -0.63200
N119        N  0.39388351  0.42881714  0.38656371    -0.05000
N120        N  0.35666171  0.41262175  0.35686377    -0.63900
Mn121      Mn  0.43186196  0.45842877  0.50356943     1.10700
C122        C  0.32524011  0.41370194  0.39096114     0.99100
C123        C  0.42445810  0.32946435  0.48224478     0.99200
N124        N  0.06579600  0.47727248  0.35439328    -0.06100
N125        N  0.10118729  0.47170433  0.34757510    -0.61500
N126        N  0.47945790  0.47880574  0.29766257    -0.05400
N127        N  0.46348372  0.46673646  0.24828407    -0.58200
N128        N  0.01948144  0.01928684  0.29752133    -0.06700
N129        N  0.03073559  0.03493112  0.24801249    -0.61100
N130        N  0.02631120  0.43701993  0.35401513    -0.05700
N131        N  0.03390081  0.40314088  0.34682443    -0.58200
Mn132      Mn  0.06678834  0.04138207  0.36807093     1.20200
Mn133      Mn  0.45985016  0.43245187  0.36801722     1.10100
Cl134      Cl  0.49939580  0.00013020  0.43590705    -0.86200
C135        C  0.08066093  0.42535437  0.34167173     0.96100
C136        C  0.99536334  0.00233179  0.21738733     0.95900
C137        C  0.15603627  0.33953145  0.81653131     0.29800
C138        C  0.14765899  0.34853224  0.92416067     0.29800
C139        C  0.13124492  0.36424988  0.83588243    -0.06400
C140        C  0.12938421  0.29353328  0.84674393    -0.07200
C141        C  0.20239446  0.36638446  0.84643881    -0.07100
C142        C  0.12708583  0.36875155  0.89052120    -0.06400
C143        C  0.12537067  0.29862697  0.90172208    -0.07200
C144        C  0.19762987  0.37069990  0.90138519    -0.07100
C145        C  0.10494423  0.39224898  0.89982093    -0.32500
N146        N  0.09568599  0.40201038  0.85195294     0.14000
C147        C  0.11142462  0.38517777  0.81252557    -0.32500
H148        H  0.10871604  0.38809036  0.77022945     0.16000
C149        C  0.10618569  0.25568354  0.92293952    -0.31500
N150        N  0.09710922  0.22429518  0.88303958     0.12700
C151        C  0.11200326  0.24687670  0.83615320    -0.31500
C152        C  0.24104777  0.39075308  0.92216088    -0.31800
N153        N  0.27238940  0.40017065  0.88197040     0.13200
H154        H  0.24954497  0.39650019  0.96394041     0.15900
C155        C  0.24935226  0.38461126  0.83534357    -0.31800
H156        H  0.26538589  0.38557906  0.79689281     0.15900
H157        H  0.11134547  0.23078732  0.79787442     0.15900
H158        H  0.09628532  0.40166303  0.93825580     0.15900
H159        H  0.10093599  0.24764303  0.96484567     0.15900
C160        C  0.16120003  0.33600874  0.31458477     0.29800
C161        C  0.15224292  0.34493077  0.42208216     0.29800
C162        C  0.13904518  0.36340228  0.33365056    -0.06400
C163        C  0.13181975  0.28999992  0.34430226    -0.07200
C164        C  0.20717533  0.36016405  0.34514361    -0.07100
C165        C  0.13473666  0.36797835  0.38820778    -0.06400
C166        C  0.12740968  0.29502803  0.39920182    -0.07200
C167        C  0.20208543  0.36439780  0.40010172    -0.07100
C168        C  0.11351854  0.39242602  0.39724026    -0.32500
N169        N  0.10489171  0.40268011  0.34928248     0.14000
C170        C  0.12006470  0.38510417  0.31005712    -0.32500
H171        H  0.11679130  0.38730630  0.26772798     0.16000
C172        C  0.10896399  0.25219056  0.42046040    -0.31500
N173        N  0.10039956  0.22090158  0.38066019     0.12700
C174        C  0.11554874  0.24355216  0.33387615    -0.31500
C175        C  0.24508101  0.38317388  0.42145309    -0.31800
N176        N  0.27652611  0.39169508  0.38160154     0.13200
H177        H  0.25319272  0.38932777  0.46335721     0.15900
C178        C  0.25391525  0.37706694  0.33461206    -0.31800
H179        H  0.27013736  0.37828628  0.29619864     0.15900
H180        H  0.11627426  0.22779462  0.29586199     0.15900
H181        H  0.10418837  0.40131335  0.43558270     0.15900
H182        H  0.10449684  0.24431155  0.46238031     0.15900
C183        C  0.07194463  0.27680206  0.59246435    -0.18100
C184        C  0.07553630  0.27287751  0.64692544    -0.20200
C185        C  0.11488822  0.30695026  0.67437438     0.20400
C186        C  0.15017143  0.34606321  0.64729542    -0.03200
C187        C  0.14664863  0.34992270  0.59252830    -0.06200
C188        C  0.10785226  0.31468521  0.56486303     0.20700
C189        C  0.18214872  0.38879892  0.56523368     0.18800
C190        C  0.21958824  0.42472795  0.59346227    -0.17700
C191        C  0.22280479  0.42115726  0.64810495    -0.19900
C192        C  0.18875353  0.38153782  0.67497774     0.20300
C193        C  0.19207809  0.37736879  0.72935899    -0.32900
C194        C  0.15811273  0.33765101  0.75652689     0.01000
C195        C  0.11894245  0.30322766  0.72874793    -0.24300
C196        C  0.10699108  0.31668452  0.50959449    -0.28900
C197        C  0.14638009  0.35074705  0.48148200     0.06700
C198        C  0.18084735  0.38965864  0.50978015    -0.27500
H199        H  0.04184302  0.24962365  0.57168204     0.11400
H200        H  0.04779135  0.24296350  0.66744179     0.12600
H201        H  0.24691955  0.45493808  0.57308575     0.11600
H202        H  0.25229573  0.44898331  0.66914129     0.10900
H203        H  0.21984174  0.40640615  0.75094395     0.16300
H204        H  0.09011009  0.27481321  0.74988338     0.12200
H205        H  0.07686212  0.29014021  0.48841104     0.15000
H206        H  0.20820046  0.41921887  0.48858079     0.14800
C207        C  0.21962652  0.42523182  0.09413947    -0.18100
C208        C  0.22528986  0.41969536  0.14751528    -0.20200
C209        C  0.19201617  0.37946160  0.17404254     0.20400
C210        C  0.15191805  0.34527697  0.14730065    -0.03200
C211        C  0.14618891  0.35088101  0.09374566    -0.06200
C212        C  0.18071640  0.39046409  0.06672615     0.20700
C213        C  0.10615370  0.31662903  0.06690129     0.18800
C214        C  0.07098798  0.27829185  0.09450941    -0.17700
C215        C  0.07652492  0.27288236  0.14790859    -0.19900
C216        C  0.11724033  0.30574312  0.17418092     0.20300
C217        C  0.12296184  0.30058209  0.22750614    -0.32900
C218        C  0.16311418  0.33402916  0.25462520     0.01000
C219        C  0.19724948  0.37364408  0.22743257    -0.24300
C220        C  0.17713358  0.39295313  0.01195981    -0.28900
C221        C  0.14220305  0.35439866  0.98364710     0.06700
C222        C  0.10355657  0.31983486  0.01211253    -0.27500
H223        H  0.24627782  0.45593745  0.07390880     0.11400
H224        H  0.25591399  0.44664057  0.16788229     0.12600
H225        H  0.03993023  0.25190381  0.07443953     0.11600
H226        H  0.04922458  0.24271301  0.16847541     0.10900
H227        H  0.09427613  0.27212655  0.24872603     0.16300
H228        H  0.22626886  0.40171072  0.24878028     0.12200
H229        H  0.20345312  0.42327295  0.99097380     0.15000
H230        H  0.07306956  0.29348393  0.99121938     0.14800
C231        C  0.41720172  0.17834469  0.77578873    -0.18100
C232        C  0.41940766  0.18434689  0.72086039    -0.20200
C233        C  0.38275995  0.18320290  0.69575154     0.20400
C234        C  0.34466811  0.17810230  0.72591287    -0.03200
C235        C  0.34346261  0.17410283  0.78117986    -0.06200
C236        C  0.37902506  0.17258286  0.80614630     0.20700
C237        C  0.30693529  0.17219897  0.81150466     0.18800
C238        C  0.27186719  0.17416023  0.78682094    -0.17700
C239        C  0.27182303  0.17572317  0.73148944    -0.19900
C240        C  0.30766663  0.17687203  0.70074022     0.20300
C241        C  0.30649028  0.17521316  0.64524855    -0.32900
C242        C  0.34189783  0.17497806  0.61523154     0.01000
C243        C  0.38245275  0.18502425  0.64069383    -0.24300
C244        C  0.37579512  0.16568184  0.86102425    -0.28900
C245        C  0.33784402  0.16106439  0.89093906     0.06700
C246        C  0.30613203  0.16854683  0.86619172    -0.27500
H247        H  0.44513897  0.17799830  0.79443312     0.11400
H248        H  0.44889183  0.18828385  0.69782282     0.12600
H249        H  0.24377933  0.17301085  0.81016506     0.11600
H250        H  0.24356457  0.17543369  0.71276177     0.10900
H251        H  0.27843885  0.17457577  0.62597297     0.16300
H252        H  0.41248492  0.19063803  0.61738937     0.12200
H253        H  0.40383092  0.16623619  0.88036645     0.15000
H254        H  0.28079621  0.17215398  0.88963643     0.14800
C255        C  0.41416771  0.23197340  0.22487298    -0.18100
C256        C  0.42011203  0.22726934  0.27830248    -0.20200
C257        C  0.38610191  0.18821158  0.30587608     0.20400
C258        C  0.34671173  0.15276455  0.27928094    -0.03200
C259        C  0.34090617  0.15734020  0.22550979    -0.06200
C260        C  0.37440050  0.19748060  0.19850621     0.20700
C261        C  0.30194721  0.12156217  0.19867190     0.18800
C262        C  0.26972264  0.08099655  0.22542164    -0.17700
C263        C  0.27510793  0.07678076  0.27929752    -0.19900
C264        C  0.31300014  0.11293054  0.30670298     0.20300
C265        C  0.31639443  0.11146604  0.36170128    -0.32900
C266        C  0.35114207  0.15060930  0.38930394     0.01000
C267        C  0.38934729  0.18519520  0.36037148    -0.24300
C268        C  0.36832335  0.20186887  0.14511778    -0.28900
C269        C  0.32886963  0.16717869  0.11824710     0.06700
C270        C  0.29656702  0.12647690  0.14515045    -0.27500
H271        H  0.44045072  0.26272251  0.20429907     0.11400
H272        H  0.45053281  0.25471295  0.29843524     0.12600
H273        H  0.23997649  0.05293382  0.20494803     0.11600
H274        H  0.24913690  0.04587398  0.29977977     0.10900
H275        H  0.29012300  0.08154291  0.38335697     0.16300
H276        H  0.42029658  0.21149117  0.38055544     0.12200
H277        H  0.39602052  0.23101544  0.12375265     0.15000
H278        H  0.26863255  0.09725723  0.12388198     0.14800
C279        C  0.32999137  0.66643156  0.05827523     0.29800
C280        C  0.33608660  0.65988491  0.95056338     0.29800
C281        C  0.35774983  0.64517235  0.03607027    -0.06400
C282        C  0.28296713  0.63704710  0.03000760    -0.07200
C283        C  0.35312354  0.71293417  0.02924672    -0.07100
C284        C  0.36085770  0.64156391  0.98087257    -0.06400
C285        C  0.28693232  0.63240416  0.97532310    -0.07200
C286        C  0.35613814  0.70857783  0.97441108    -0.07100
C287        C  0.38237194  0.61735172  0.96991067    -0.32500
N288        N  0.39337693  0.60774298  0.01687354     0.14000
C289        C  0.37846478  0.62430486  0.05749798    -0.32500
H290        H  0.38136137  0.62029861  0.09942736     0.16000
C291        C  0.24306407  0.60550167  0.95596315    -0.31500
N292        N  0.21195029  0.59691070  0.99609194     0.12700
C293        C  0.23565798  0.61602472  0.04193118    -0.31500
C294        C  0.37832745  0.75176757  0.95360581    -0.31800
N295        N  0.38862640  0.78313922  0.99385087     0.13200
H296        H  0.38640918  0.75981428  0.91179036     0.15900
C297        C  0.37298067  0.76005121  0.04055027    -0.31800
H298        H  0.37609150  0.77633141  0.07937692     0.15900
H299        H  0.21988885  0.61619091  0.08022734     0.15900
H300        H  0.38827422  0.60601357  0.93119247     0.15900
H301        H  0.23419334  0.59508295  0.91466863     0.15900
C302        C  0.33918786  0.66626614  0.55582102     0.29800
C303        C  0.34602934  0.65660570  0.44839229     0.29800
C304        C  0.35855033  0.63621625  0.53611507    -0.06400
C305        C  0.29219709  0.64250376  0.52643106    -0.07200
C306        C  0.36950274  0.71149139  0.52589642    -0.07100
C307        C  0.36259725  0.63218500  0.48138781    -0.06400
C308        C  0.29664873  0.63851918  0.47120396    -0.07200
C309        C  0.37250586  0.70645085  0.47113016    -0.07100
C310        C  0.38317646  0.60723929  0.47116812    -0.32500
N311        N  0.39105812  0.59547201  0.51854231     0.14000
C312        C  0.37579249  0.61227954  0.55845967    -0.32500
H313        H  0.37838796  0.60828664  0.60045164     0.16000
C314        C  0.25321496  0.61808436  0.45043985    -0.31500
N315        N  0.22169286  0.60754698  0.49071453     0.12700
C316        C  0.24466436  0.62184563  0.53756006    -0.31500
C317        C  0.39187370  0.74970461  0.45055329    -0.31800
N318        N  0.40290244  0.78106083  0.49096603     0.13200
H319        H  0.39513390  0.75795367  0.40884518     0.15900
C320        C  0.38852883  0.75818216  0.53757766    -0.31800
H321        H  0.38991794  0.77386451  0.57639860     0.15900
H322        H  0.22759664  0.61622343  0.57625783     0.15900
H323        H  0.39286167  0.59932198  0.43248014     0.15900
H324        H  0.24473507  0.61146865  0.40866323     0.15900
N325        N  0.47205135  0.98502431  0.07640210    -0.06400
N326        N  0.46009091  0.96948898  0.12593050    -0.58500
N327        N  0.46922783  0.56934096  0.01721245    -0.06000
N328        N  0.46306473  0.60434906  0.02048891    -0.60600
N329        N  0.42898838  0.52973661  0.01657792    -0.05600
N330        N  0.39443100  0.53685296  0.01928523    -0.58500
N331        N  0.01259651  0.52473345  0.07628546    -0.05300
N332        N  0.02824316  0.53655210  0.12580155    -0.61400
C333        C  0.49566855  0.00157085  0.15672566     0.95800
C334        C  0.41634260  0.58345969  0.02287341     0.95600
N335        N  0.06337750  0.60854772  0.88843534    -0.06600
N336        N  0.07823350  0.64519979  0.85851110    -0.59100
N337        N  0.09836499  0.57021905  0.98808919    -0.04700
N338        N  0.13360462  0.58136595  0.01926306    -0.60300
N339        N  0.10687064  0.56043689  0.93916430    -0.06600
N340        N  0.14706257  0.56359151  0.93660410    -0.59300
N341        N  0.05377720  0.61705333  0.93747863    -0.04300
N342        N  0.06099455  0.65880831  0.94150242    -0.60400
Mn343      Mn  0.03450755  0.57095817  0.00555143     1.18400
C344        C  0.07592785  0.67596223  0.89236422     0.97900
C345        C  0.16345234  0.57638771  0.98643980     0.98600
N346        N  0.38021037  0.94546565  0.93652136    -0.06600
N347        N  0.33814548  0.93796134  0.94024392    -0.62900
N348        N  0.43498363  0.89073915  0.93900109    -0.05400
N349        N  0.42789712  0.84898820  0.93575122    -0.63600
N350        N  0.42490560  0.89941731  0.98774887    -0.06100
N351        N  0.40982168  0.86293227  0.01804989    -0.63200
N352        N  0.38882452  0.93552762  0.88768793    -0.05000
N353        N  0.35193020  0.92012621  0.85767310    -0.63900
Mn354      Mn  0.42588203  0.96401037  0.00516983     1.10700
C355        C  0.32090791  0.92250231  0.89117643     0.99100
C356        C  0.41250622  0.83196370  0.98496224     0.99200
N357        N  0.05886280  0.97848830  0.85679849    -0.06100
N358        N  0.09353147  0.97186032  0.84988537    -0.61500
N359        N  0.47557936  0.98258668  0.79846461    -0.05400
N360        N  0.46161825  0.96959923  0.74840691    -0.58200
N361        N  0.01596742  0.52286031  0.79845209    -0.06700
N362        N  0.02930384  0.53733262  0.74865178    -0.61100
N363        N  0.01886734  0.93874526  0.85710592    -0.05700
N364        N  0.02532627  0.90410886  0.85038114    -0.58200
Mn365      Mn  0.06191936  0.54380039  0.86999054     1.20200
Mn366      Mn  0.45356095  0.93638813  0.86996735     1.10100
Cl367      Cl  0.49402378  0.50384731  0.93734323    -0.86200
C368        C  0.07195728  0.92537978  0.84471597     0.96100
C369        C  0.99504703  0.50434709  0.71714040     0.95900
N370        N  0.47803337  0.98165137  0.57531072    -0.06400
N371        N  0.46460262  0.96761869  0.62522867    -0.58500
N372        N  0.47123258  0.56289347  0.51538649    -0.06000
N373        N  0.46298295  0.59643043  0.52073010    -0.60600
N374        N  0.43198677  0.52233999  0.51568260    -0.05600
N375        N  0.39615242  0.52728470  0.52120175    -0.58500
N376        N  0.01747438  0.52245094  0.57507236    -0.05300
N377        N  0.03105771  0.53627984  0.62511807    -0.61000
C378        C  0.49816721  0.00145665  0.65665440     0.95800
C379        C  0.41613194  0.57358612  0.52546542     0.95600
N380        N  0.06615891  0.60515601  0.38589421    -0.06600
N381        N  0.08110743  0.64178850  0.35594822    -0.59100
N382        N  0.10428803  0.57051981  0.48537277    -0.04700
N383        N  0.14128189  0.58603257  0.51535755    -0.60300
N384        N  0.11309558  0.56097032  0.43639540    -0.06600
N385        N  0.15537564  0.56890345  0.43261013    -0.59300
N386        N  0.05593983  0.61340654  0.43473200    -0.04300
N387        N  0.06283663  0.65504835  0.43854619    -0.60400
Mn388      Mn  0.03823618  0.56784721  0.50324956     1.18400
C389        C  0.07820810  0.67233947  0.38950180     0.97900
C390        C  0.17261310  0.58413229  0.48177859     0.98600
N391        N  0.38552615  0.93853182  0.43570049    -0.06600
N392        N  0.34308196  0.93001961  0.43992217    -0.62900
N393        N  0.44384672  0.88755402  0.43653936    -0.05400
N394        N  0.43859788  0.84662476  0.43281554    -0.63600
N395        N  0.43391633  0.89568196  0.48562020    -0.06100
N396        N  0.42069783  0.85953737  0.51575800    -0.63200
N397        N  0.39428327  0.92931198  0.38661810    -0.05000
N398        N  0.35717171  0.91343421  0.35681923    -0.63900
Mn399      Mn  0.43205511  0.95860265  0.50376362     1.10700
C400        C  0.32583256  0.91472947  0.39084712     0.99100
C401        C  0.42442296  0.82951246  0.48209968     0.99200
N402        N  0.06585893  0.97699806  0.35434914    -0.06100
N403        N  0.10110838  0.97119885  0.34755037    -0.61500
N404        N  0.47967796  0.97895490  0.29768770    -0.05400
N405        N  0.46360433  0.96690475  0.24835806    -0.58200
N406        N  0.01917378  0.51923144  0.29753797    -0.06700
N407        N  0.03044665  0.53490498  0.24804710    -0.61100
N408        N  0.02627352  0.93686003  0.35384941    -0.05700
N409        N  0.03361352  0.90282745  0.34657969    -0.58200
Mn410      Mn  0.06656844  0.54155981  0.36793558     1.20200
Mn411      Mn  0.46005225  0.93263964  0.36800286     1.10100
Cl412      Cl  0.49917380  0.50008611  0.43573084    -0.86200
C413        C  0.08034840  0.92481782  0.34152372     0.96100
C414        C  0.99520216  0.50223943  0.21734612     0.95900
C415        C  0.15583654  0.83956917  0.81650314     0.29800
C416        C  0.14741153  0.84847645  0.92414672     0.29800
C417        C  0.13107922  0.86432060  0.83589071    -0.06400
C418        C  0.12912700  0.79354914  0.84666387    -0.07200
C419        C  0.20217539  0.86634013  0.84645457    -0.07100
C420        C  0.12689936  0.86876804  0.89054072    -0.06400
C421        C  0.12509577  0.79860366  0.90165153    -0.07200
C422        C  0.19736807  0.87059284  0.90140149    -0.07100
C423        C  0.10465419  0.89215162  0.89989895    -0.32500
N424        N  0.09534909  0.90190420  0.85205885     0.14000
C425        C  0.11117129  0.88518703  0.81258672    -0.32500
H426        H  0.10842642  0.88810334  0.77030215     0.16000
C427        C  0.10614980  0.75570449  0.92286458    -0.31500
N428        N  0.09720443  0.72435946  0.88295766     0.12700
C429        C  0.11197523  0.74694263  0.83606563    -0.31500
C430        C  0.24072222  0.89047923  0.92225797    -0.31800
N431        N  0.27209245  0.89991122  0.88212010     0.13200
H432        H  0.24916146  0.89612035  0.96405411     0.15900
C433        C  0.24912716  0.88447301  0.83543708    -0.31800
H434        H  0.26520392  0.88547814  0.79700472     0.15900
H435        H  0.11143365  0.73090677  0.79778829     0.15900
H436        H  0.09592989  0.90147014  0.93835584     0.15900
H437        H  0.10101647  0.74768422  0.96477629     0.15900
C438        C  0.16169010  0.83625298  0.31448401     0.29800
C439        C  0.15273894  0.84514268  0.42199316     0.29800
C440        C  0.13854523  0.86269952  0.33355435    -0.06400
C441        C  0.13328344  0.79023819  0.34435823    -0.07200
C442        C  0.20778695  0.86138711  0.34490347    -0.07100
C443        C  0.13419595  0.86723012  0.38811390    -0.06400
C444        C  0.12890942  0.79523639  0.39924295    -0.07200
C445        C  0.20269613  0.86563869  0.39986103    -0.07100
C446        C  0.11288567  0.89159204  0.39713553    -0.32500
N447        N  0.10427003  0.90184502  0.34916884     0.14000
C448        C  0.11951284  0.88434022  0.30994878    -0.32500
H449        H  0.11656113  0.88684722  0.26761080     0.16000
C450        C  0.10930904  0.75217878  0.42032231    -0.31500
N451        N  0.10017143  0.72084656  0.38036294     0.12700
C452        C  0.11575266  0.74358277  0.33365138    -0.31500
C453        C  0.24570685  0.88447130  0.42120952    -0.31800
N454        N  0.27716695  0.89301996  0.38138241     0.13200
H455        H  0.25376797  0.89031153  0.46313112     0.15900
C456        C  0.25454620  0.87829150  0.33440527    -0.31800
H457        H  0.27072305  0.87915021  0.29607315     0.15900
H458        H  0.11563260  0.72763366  0.29545731     0.15900
H459        H  0.10381192  0.90073481  0.43547886     0.15900
H460        H  0.10409973  0.74405189  0.46219179     0.15900
C461        C  0.07205838  0.77695707  0.59221844    -0.18100
C462        C  0.07552738  0.77302477  0.64671540    -0.20200
C463        C  0.11482966  0.80708076  0.67425932     0.20400
C464        C  0.15016741  0.84619944  0.64724199    -0.03200
C465        C  0.14675720  0.85007338  0.59245205    -0.06200
C466        C  0.10803281  0.81483843  0.56467918     0.20700
C467        C  0.18230402  0.88896719  0.56523916     0.18800
C468        C  0.21964113  0.92492782  0.59355850    -0.17700
C469        C  0.22277404  0.92131934  0.64820675    -0.19900
C470        C  0.18871176  0.88165432  0.67499909     0.20300
C471        C  0.19198300  0.87742924  0.72937642    -0.32900
C472        C  0.15795293  0.83771796  0.75649552     0.01000
C473        C  0.11880087  0.80332698  0.72865421    -0.24300
C474        C  0.10732464  0.81684989  0.50938124    -0.28900
C475        C  0.14681064  0.85089788  0.48138955     0.06700
C476        C  0.18115383  0.88982780  0.50978154    -0.27500
H477        H  0.04200627  0.74977934  0.57136198     0.11400
H478        H  0.04773920  0.74310617  0.66718027     0.12600
H479        H  0.24698370  0.95517167  0.57324106     0.11600
H480        H  0.25221180  0.94914871  0.66930877     0.10900
H481        H  0.21974904  0.90642939  0.75100302     0.16300
H482        H  0.08994692  0.77489560  0.74974909     0.12200
H483        H  0.07725243  0.79034180  0.48808757     0.15000
H484        H  0.20846202  0.91948373  0.48868860     0.14800
C485        C  0.21975370  0.92514803  0.09387666    -0.18100
C486        C  0.22552653  0.91965235  0.14721943    -0.20200
C487        C  0.19223630  0.87950177  0.17385867     0.20400
C488        C  0.15202616  0.84535253  0.14726591    -0.03200
C489        C  0.14620975  0.85089055  0.09372194    -0.06200
C490        C  0.18072158  0.89041610  0.06660817     0.20700
C491        C  0.10610343  0.81663519  0.06698590     0.18800
C492        C  0.07093512  0.77838957  0.09472069    -0.17700
C493        C  0.07652180  0.77309271  0.14814659    -0.19900
C494        C  0.11732914  0.80592983  0.17428727     0.20300
C495        C  0.12316124  0.80084700  0.22760272    -0.32900
C496        C  0.16349084  0.83419523  0.25453205     0.01000
C497        C  0.19759465  0.87373788  0.22721206    -0.24300
C498        C  0.17698585  0.89289998  0.01188652    -0.28900
C499        C  0.14200725  0.85433171  0.98364466     0.06700
C500        C  0.10342899  0.81975678  0.01218783    -0.27500
H501        H  0.24640863  0.95579417  0.07355664     0.11400
H502        H  0.25624415  0.94656543  0.16747428     0.12600
H503        H  0.03982212  0.75200118  0.07474155     0.11600
H504        H  0.04920800  0.74300585  0.16882148     0.10900
H505        H  0.09445139  0.77254930  0.24898791     0.16300
H506        H  0.22669856  0.90182825  0.24840685     0.12200
H507        H  0.20326089  0.92321275  0.99085164     0.15000
H508        H  0.07292426  0.79336282  0.99135526     0.14800
C509        C  0.41709092  0.67811368  0.77552838    -0.18100
C510        C  0.41925330  0.68406480  0.72059819    -0.20200
C511        C  0.38261623  0.68296421  0.69552198     0.20400
C512        C  0.34457535  0.67795236  0.72571456    -0.03200
C513        C  0.34341861  0.67400993  0.78098873    -0.06200
C514        C  0.37897305  0.67245302  0.80591950     0.20700
C515        C  0.30696339  0.67221998  0.81135724     0.18800
C516        C  0.27189247  0.67419150  0.78669648    -0.17700
C517        C  0.27179997  0.67570460  0.73135798    -0.19900
C518        C  0.30759440  0.67678067  0.70057079     0.20300
C519        C  0.30639870  0.67512969  0.64506873    -0.32900
C520        C  0.34177957  0.67485712  0.61501433     0.01000
C521        C  0.38229536  0.68478823  0.64046767    -0.24300
C522        C  0.37581501  0.66564577  0.86080314    -0.28900
C523        C  0.33796652  0.66119483  0.89077547     0.06700
C524        C  0.30624643  0.66868096  0.86606149    -0.27500
H525        H  0.44502373  0.67774324  0.79415150     0.11400
H526        H  0.44870222  0.68794131  0.69753463     0.12600
H527        H  0.24385142  0.67311319  0.81006699     0.11600
H528        H  0.24355241  0.67545026  0.71265758     0.10900
H529        H  0.27838172  0.67455430  0.62582705     0.16300
H530        H  0.41231203  0.69037398  0.61715693     0.12200
H531        H  0.40385543  0.66617853  0.88010039     0.15000
H532        H  0.28094916  0.67232934  0.88954101     0.14800
C533        C  0.41433166  0.73163790  0.22463001    -0.18100
C534        C  0.42018774  0.72696974  0.27808622    -0.20200
C535        C  0.38611698  0.68794423  0.30564529     0.20400
C536        C  0.34681796  0.65242330  0.27899288    -0.03200
C537        C  0.34110534  0.65695914  0.22519428    -0.06200
C538        C  0.37459179  0.69713750  0.19824417     0.20700
C539        C  0.30221030  0.62115007  0.19830313     0.18800
C540        C  0.27000284  0.58055018  0.22500520    -0.17700
C541        C  0.27528546  0.57637916  0.27893059    -0.19900
C542        C  0.31305888  0.61261447  0.30641638     0.20300
C543        C  0.31627050  0.61129972  0.36148133    -0.32900
C544        C  0.35094788  0.65053133  0.38907025     0.01000
C545        C  0.38920567  0.68506381  0.36018042    -0.24300
C546        C  0.36850855  0.70159020  0.14490460    -0.28900
C547        C  0.32907957  0.66690569  0.11801715     0.06700
C548        C  0.29685464  0.62610717  0.14479992    -0.27500
H549        H  0.44062520  0.76239125  0.20407419     0.11400
H550        H  0.45055578  0.75444624  0.29826620     0.12600
H551        H  0.24031989  0.55245439  0.20447540     0.11600
H552        H  0.24930152  0.54546979  0.29939548     0.10900
H553        H  0.28993019  0.58143164  0.38316216     0.16300
H554        H  0.42009456  0.71141715  0.38040402     0.12200
H555        H  0.39618879  0.73078822  0.12359138     0.15000
H556        H  0.26898332  0.59688595  0.12346594     0.14800
C557        C  0.82979191  0.16657278  0.05845582     0.29800
C558        C  0.83592739  0.15979661  0.95073995     0.29800
C559        C  0.85754573  0.14526049  0.03639983    -0.06400
C560        C  0.78278116  0.13711512  0.03016488    -0.07200
C561        C  0.85294753  0.21300926  0.02924319    -0.07100
C562        C  0.86071579  0.14158538  0.98120621    -0.06400
C563        C  0.78676142  0.13235128  0.97549451    -0.07200
C564        C  0.85596682  0.20851792  0.97442426    -0.07100
C565        C  0.88231653  0.11744750  0.97038356    -0.32500
N566        N  0.89323196  0.10785565  0.01741737     0.14000
C567        C  0.87822739  0.12440975  0.05795748    -0.32500
H568        H  0.88104156  0.12041285  0.09991417     0.16000
C569        C  0.74289091  0.10547188  0.95611799    -0.31500
N570        N  0.71177882  0.09702856  0.99620108     0.12700
C571        C  0.73547694  0.11620511  0.04203131    -0.31500
C572        C  0.87827114  0.25164601  0.95343586    -0.31800
N573        N  0.88863437  0.28312856  0.99354537     0.13200
H574        H  0.88640628  0.25957817  0.91159712     0.15900
C575        C  0.87292715  0.26017167  0.04033515    -0.31800
H576        H  0.87610108  0.27657431  0.07909192     0.15900
H577        H  0.71970737  0.11651004  0.08027437     0.15900
H578        H  0.88831637  0.10612775  0.93170595     0.15900
H579        H  0.73402325  0.09498892  0.91483294     0.15900
C580        C  0.83928454  0.16631192  0.55606630     0.29800
C581        C  0.84617354  0.15662761  0.44864629     0.29800
C582        C  0.85869460  0.13630079  0.53641503    -0.06400
C583        C  0.79229086  0.14247695  0.52668340    -0.07200
C584        C  0.86956150  0.21151430  0.52612552    -0.07100
C585        C  0.86280700  0.13228667  0.48168888    -0.06400
C586        C  0.79674064  0.13846188  0.47145966    -0.07200
C587        C  0.87259734  0.20645934  0.47137353    -0.07100
C588        C  0.88351761  0.10745970  0.47154195    -0.32500
N589        N  0.89135290  0.09569867  0.51894997     0.14000
C590        C  0.87595560  0.11241348  0.55882470    -0.32500
H591        H  0.87848382  0.10840578  0.60083107     0.16000
C592        C  0.75324202  0.11782816  0.45075678    -0.31500
N593        N  0.72172025  0.10723312  0.49106000     0.12700
C594        C  0.74474456  0.12167223  0.53786588    -0.31500
C595        C  0.89203713  0.24970080  0.45078249    -0.31800
N596        N  0.90302696  0.28105352  0.49117758     0.13200
H597        H  0.89533211  0.25795117  0.40907386     0.15900
C598        C  0.88860702  0.25820145  0.53779761    -0.31800
H599        H  0.88996191  0.27389617  0.57659941     0.15900
H600        H  0.72770656  0.11603061  0.57659038     0.15900
H601        H  0.89329353  0.09959163  0.43288268     0.15900
H602        H  0.74470937  0.11112012  0.40900007     0.15900
N603        N  0.97227914  0.48499631  0.07619547    -0.06400
N604        N  0.96019510  0.46944285  0.12571636    -0.58500
N605        N  0.96896961  0.06932771  0.01747304    -0.06000
N606        N  0.96285399  0.10436354  0.02094710    -0.60600
N607        N  0.92870603  0.02974630  0.01689158    -0.05600
N608        N  0.89418444  0.03691766  0.01983837    -0.58500
N609        N  0.51240860  0.02471759  0.07637975    -0.05300
N610        N  0.52822049  0.03652782  0.12581731    -0.61400
C611        C  0.99564403  0.50154910  0.15664393     0.95800
C612        C  0.91614109  0.08353037  0.02352880     0.95600
N613        N  0.56309254  0.10844832  0.88859641    -0.06600
N614        N  0.57796191  0.14508123  0.85863732    -0.59100
N615        N  0.59812323  0.07020676  0.98824343    -0.04700
N616        N  0.63342474  0.08148513  0.01937543    -0.60300
N617        N  0.60661622  0.06039646  0.93933051    -0.06600
N618        N  0.64686940  0.06367958  0.93671883    -0.59300
N619        N  0.55345628  0.11697563  0.93760811    -0.04300
N620        N  0.56064882  0.15872456  0.94156937    -0.60400
Mn621      Mn  0.53424522  0.07092277  0.00570727     1.18400
C622        C  0.57562114  0.17586131  0.89242508     0.97900
C623        C  0.66329235  0.07655701  0.98652972     0.98600
N624        N  0.88056003  0.44558582  0.93618240    -0.06600
N625        N  0.83853516  0.43818080  0.93996017    -0.62900
N626        N  0.93524075  0.39074389  0.93853328    -0.05400
N627        N  0.92797297  0.34891182  0.93526546    -0.63600
N628        N  0.92523686  0.39947485  0.98729691    -0.06100
N629        N  0.91005331  0.36297943  0.01759098    -0.63200
N630        N  0.88911701  0.43563676  0.88732872    -0.05000
N631        N  0.85220261  0.42031152  0.85735968    -0.63900
Mn632      Mn  0.92621126  0.46404661  0.00482862     1.10700
C633        C  0.82123495  0.42275177  0.89091773     0.99100
C634        C  0.91258237  0.33193270  0.98450833     0.99200
N635        N  0.55920542  0.47861522  0.85651522    -0.06100
N636        N  0.59389325  0.47199493  0.84976495    -0.61500
N637        N  0.97586557  0.48274448  0.79815097    -0.05400
N638        N  0.96183486  0.46980828  0.74810962    -0.58200
N639        N  0.51567515  0.02270944  0.79875992    -0.06700
N640        N  0.52907511  0.03713716  0.74896206    -0.61100
N641        N  0.51920917  0.43886853  0.85669424    -0.05700
N642        N  0.52568939  0.40424220  0.85001033    -0.58200
Mn643      Mn  0.56161576  0.04368571  0.87023594     1.20200
Mn644      Mn  0.95386399  0.43648331  0.86956495     1.10100
Cl645      Cl  0.99371785  0.00376614  0.93763599    -0.86200
C646        C  0.57233245  0.42551726  0.84453015     0.96100
C647        C  0.49486545  0.00412354  0.71744524     0.95900
N648        N  0.97804554  0.48174260  0.57501077    -0.06400
N649        N  0.96470508  0.46775768  0.62495863    -0.58500
N650        N  0.97145014  0.06303128  0.51571834    -0.06000
N651        N  0.96324944  0.09660321  0.52108507    -0.60600
N652        N  0.93218577  0.02250653  0.51609666    -0.05600
N653        N  0.89638087  0.02749216  0.52171739    -0.58500
N654        N  0.51747528  0.02233224  0.57544314    -0.05300
N655        N  0.53100825  0.03610120  0.62551122    -0.61000
C656        C  0.99828104  0.50165216  0.65632855     0.95800
C657        C  0.91640284  0.07380133  0.52594158     0.95600
N658        N  0.56665339  0.10514281  0.38621459    -0.06600
N659        N  0.58199280  0.14193787  0.35640633    -0.59100
N660        N  0.60429820  0.07017254  0.48570812    -0.04700
N661        N  0.64129155  0.08569703  0.51570111    -0.60300
N662        N  0.61309141  0.06052719  0.43675444    -0.06600
N663        N  0.65534327  0.06838148  0.43304279    -0.59300
N664        N  0.55640815  0.11337894  0.43507185    -0.04300
N665        N  0.56373320  0.15518495  0.43904929    -0.60400
Mn666      Mn  0.53837268  0.06774761  0.50359338     1.18400
C667        C  0.57931878  0.17254730  0.39008720     0.97900
C668        C  0.67260311  0.08368754  0.48219059     0.98600
N669        N  0.88511663  0.43802493  0.43564578    -0.06600
N670        N  0.84254537  0.42916316  0.43998207    -0.62900
N671        N  0.94368070  0.38737775  0.43656396    -0.05400
N672        N  0.93854643  0.34650148  0.43291810    -0.63600
N673        N  0.93375458  0.39553298  0.48562538    -0.06100
N674        N  0.92065151  0.35946645  0.51584706    -0.63200
N675        N  0.89388344  0.42881713  0.38656370    -0.05000
N676        N  0.85666169  0.41262177  0.35686386    -0.63900
Mn677      Mn  0.93186190  0.45842878  0.50356947     1.10700
C678        C  0.82523998  0.41370192  0.39096116     0.99100
C679        C  0.92445795  0.32946434  0.48224475     0.99200
N680        N  0.56579612  0.47727255  0.35439309    -0.06100
N681        N  0.60118741  0.47170442  0.34757502    -0.61500
N682        N  0.97945784  0.47880560  0.29766253    -0.05400
N683        N  0.96348366  0.46673635  0.24828406    -0.58200
N684        N  0.51948149  0.01928685  0.29752131    -0.06700
N685        N  0.53073565  0.03493116  0.24801249    -0.61100
N686        N  0.52631131  0.43701999  0.35401504    -0.05700
N687        N  0.53390095  0.40314094  0.34682445    -0.58200
Mn688      Mn  0.56678826  0.04138205  0.36807093     1.20200
Mn689      Mn  0.95985004  0.43245185  0.36801726     1.10100
Cl690      Cl  0.99939593  0.00013041  0.43590707    -0.86200
C691        C  0.58066103  0.42535443  0.34167178     0.96100
C692        C  0.49536338  0.00233180  0.21738732     0.95900
C693        C  0.65603630  0.33953145  0.81653130     0.29800
C694        C  0.64765900  0.34853224  0.92416064     0.29800
C695        C  0.63124502  0.36424993  0.83588241    -0.06400
C696        C  0.62938411  0.29353327  0.84674388    -0.07200
C697        C  0.70239449  0.36638440  0.84643883    -0.07100
C698        C  0.62708593  0.36875161  0.89052120    -0.06400
C699        C  0.62537054  0.29862695  0.90172206    -0.07200
C700        C  0.69762990  0.37069984  0.90138520    -0.07100
C701        C  0.60494432  0.39224897  0.89982084    -0.32500
N702        N  0.59568607  0.40201043  0.85195295     0.14000
C703        C  0.61142471  0.38517779  0.81252556    -0.32500
H704        H  0.60871611  0.38809036  0.77022944     0.16000
C705        C  0.60618573  0.25568357  0.92293918    -0.31500
N706        N  0.59710929  0.22429522  0.88303962     0.12700
C707        C  0.61200330  0.24687670  0.83615306    -0.31500
C708        C  0.74104782  0.39075306  0.92216088    -0.31800
N709        N  0.77238941  0.40017063  0.88197042     0.13200
H710        H  0.74954502  0.39650018  0.96394042     0.15900
C711        C  0.74935235  0.38461126  0.83534348    -0.31800
H712        H  0.76538579  0.38557911  0.79689322     0.15900
H713        H  0.61134557  0.23078748  0.79787465     0.15900
H714        H  0.59628525  0.40166306  0.93825618     0.15900
H715        H  0.60093587  0.24764280  0.96484694     0.15900
C716        C  0.66119994  0.33600872  0.31458472     0.29800
C717        C  0.65224288  0.34493072  0.42208213     0.29800
C718        C  0.63904515  0.36340229  0.33365054    -0.06400
C719        C  0.63181956  0.28999987  0.34430220    -0.07200
C720        C  0.70717525  0.36016400  0.34514356    -0.07100
C721        C  0.63473670  0.36797838  0.38820777    -0.06400
C722        C  0.62740952  0.29502798  0.39920179    -0.07200
C723        C  0.70208535  0.36439772  0.40010166    -0.07100
C724        C  0.61351861  0.39242606  0.39724029    -0.32500
N725        N  0.60489179  0.40268017  0.34928253     0.14000
C726        C  0.62006463  0.38510415  0.31005707    -0.32500
H727        H  0.61679116  0.38730624  0.26772824     0.16000
C728        C  0.60896403  0.25219053  0.42046038    -0.31500
N729        N  0.60039965  0.22090157  0.38066019     0.12700
C730        C  0.61554878  0.24355215  0.33387613    -0.31500
C731        C  0.74508091  0.38317389  0.42145302    -0.31800
N732        N  0.77652608  0.39169512  0.38160154     0.13200
H733        H  0.75319264  0.38932780  0.46335734     0.15900
C734        C  0.75391519  0.37706690  0.33461202    -0.31800
H735        H  0.77013724  0.37828613  0.29619879     0.15900
H736        H  0.61627438  0.22779468  0.29586203     0.15900
H737        H  0.60418849  0.40131335  0.43558269     0.15900
H738        H  0.60449699  0.24431153  0.46238035     0.15900
C739        C  0.57194465  0.27680200  0.59246433    -0.18100
C740        C  0.57553636  0.27287745  0.64692541    -0.20200
C741        C  0.61488825  0.30695015  0.67437436     0.20400
C742        C  0.65017141  0.34606319  0.64729543    -0.03200
C743        C  0.64664859  0.34992270  0.59252831    -0.06200
C744        C  0.60785229  0.31468520  0.56486303     0.20700
C745        C  0.68214870  0.38879893  0.56523370     0.18800
C746        C  0.71958813  0.42472797  0.59346230    -0.17700
C747        C  0.72280476  0.42115727  0.64810496    -0.19900
C748        C  0.68875343  0.38153783  0.67497775     0.20300
C749        C  0.69207799  0.37736885  0.72935901    -0.32900
C750        C  0.65811273  0.33765099  0.75652690     0.01000
C751        C  0.61894252  0.30322761  0.72874791    -0.24300
C752        C  0.60699113  0.31668449  0.50959448    -0.28900
C753        C  0.64638014  0.35074702  0.48148199     0.06700
C754        C  0.68084742  0.38965867  0.50978012    -0.27500
H755        H  0.54184313  0.24962366  0.57168204     0.11400
H756        H  0.54779123  0.24296330  0.66744185     0.12600
H757        H  0.74691950  0.45493823  0.57308576     0.11600
H758        H  0.75229560  0.44898313  0.66914119     0.10900
H759        H  0.71984156  0.40640621  0.75094398     0.16300
H760        H  0.59011001  0.27481303  0.74988346     0.12200
H761        H  0.57686222  0.29014020  0.48841105     0.15000
H762        H  0.70820027  0.41921867  0.48858097     0.14800
C763        C  0.71962644  0.42523174  0.09413950    -0.18100
C764        C  0.72528975  0.41969537  0.14751526    -0.20200
C765        C  0.69201611  0.37946159  0.17404252     0.20400
C766        C  0.65191794  0.34527702  0.14730065    -0.03200
C767        C  0.64618878  0.35088105  0.09374568    -0.06200
C768        C  0.68071632  0.39046411  0.06672616     0.20700
C769        C  0.60615365  0.31662902  0.06690127     0.18800
C770        C  0.57098777  0.27829178  0.09450934    -0.17700
C771        C  0.57652477  0.27288243  0.14790860    -0.19900
C772        C  0.61724015  0.30574318  0.17418094     0.20300
C773        C  0.62296175  0.30058228  0.22750609    -0.32900
C774        C  0.66311406  0.33402919  0.25462518     0.01000
C775        C  0.69724948  0.37364405  0.22743251    -0.24300
C776        C  0.67713358  0.39295313  0.01195979    -0.28900
C777        C  0.64220300  0.35439868  0.98364709     0.06700
C778        C  0.60355656  0.31983482  0.01211250    -0.27500
H779        H  0.74627810  0.45593762  0.07390858     0.11400
H780        H  0.75591398  0.44664071  0.16788240     0.12600
H781        H  0.53993058  0.25190421  0.07443978     0.11600
H782        H  0.54922433  0.24271300  0.16847546     0.10900
H783        H  0.59427558  0.27212627  0.24872636     0.16300
H784        H  0.72626891  0.40171062  0.24878017     0.12200
H785        H  0.70345314  0.42327283  0.99097384     0.15000
H786        H  0.57306955  0.29348383  0.99121932     0.14800
C787        C  0.91720168  0.17834447  0.77578878    -0.18100
C788        C  0.91940781  0.18434682  0.72086026    -0.20200
C789        C  0.88276000  0.18320296  0.69575155     0.20400
C790        C  0.84466824  0.17810246  0.72591286    -0.03200
C791        C  0.84346267  0.17410290  0.78117985    -0.06200
C792        C  0.87902505  0.17258280  0.80614628     0.20700
C793        C  0.80693532  0.17219904  0.81150467     0.18800
C794        C  0.77186748  0.17416054  0.78682084    -0.17700
C795        C  0.77182322  0.17572347  0.73148948    -0.19900
C796        C  0.80766672  0.17687216  0.70074021     0.20300
C797        C  0.80649033  0.17521317  0.64524856    -0.32900
C798        C  0.84189784  0.17497805  0.61523154     0.01000
C799        C  0.88245280  0.18502425  0.64069381    -0.24300
C800        C  0.87579510  0.16568180  0.86102425    -0.28900
C801        C  0.83784397  0.16106439  0.89093907     0.06700
C802        C  0.80613213  0.16854682  0.86619160    -0.27500
H803        H  0.94513856  0.17799792  0.79443291     0.11400
H804        H  0.94889109  0.18828362  0.69782342     0.12600
H805        H  0.74377907  0.17301126  0.81016555     0.11600
H806        H  0.74356467  0.17543409  0.71276168     0.10900
H807        H  0.77843878  0.17457575  0.62597290     0.16300
H808        H  0.91248489  0.19063797  0.61738938     0.12200
H809        H  0.90383079  0.16623607  0.88036643     0.15000
H810        H  0.78079565  0.17215406  0.88963693     0.14800
C811        C  0.91416788  0.23197350  0.22487289    -0.18100
C812        C  0.92011206  0.22726933  0.27830251    -0.20200
C813        C  0.88610189  0.18821162  0.30587610     0.20400
C814        C  0.84671176  0.15276455  0.27928095    -0.03200
C815        C  0.84090625  0.15734021  0.22550977    -0.06200
C816        C  0.87440055  0.19748057  0.19850622     0.20700
C817        C  0.80194728  0.12156215  0.19867188     0.18800
C818        C  0.76972272  0.08099654  0.22542163    -0.17700
C819        C  0.77510799  0.07678074  0.27929750    -0.19900
C820        C  0.81300017  0.11293054  0.30670297     0.20300
C821        C  0.81639435  0.11146608  0.36170130    -0.32900
C822        C  0.85114210  0.15060928  0.38930395     0.01000
C823        C  0.88934732  0.18519519  0.36037150    -0.24300
C824        C  0.86832347  0.20186893  0.14511775    -0.28900
C825        C  0.82886969  0.16717867  0.11824710     0.06700
C826        C  0.79656718  0.12647697  0.14515050    -0.27500
H827        H  0.94045034  0.26272187  0.20429947     0.11400
H828        H  0.95053283  0.25471287  0.29843518     0.12600
H829        H  0.73997656  0.05293380  0.20494800     0.11600
H830        H  0.74913696  0.04587398  0.29977974     0.10900
H831        H  0.79012291  0.08154303  0.38335693     0.16300
H832        H  0.92029656  0.21149107  0.38055539     0.12200
H833        H  0.89602034  0.23101523  0.12375288     0.15000
H834        H  0.76863228  0.09725684  0.12388170     0.14800
C835        C  0.82999137  0.66643158  0.05827525     0.29800
C836        C  0.83608653  0.65988482  0.95056342     0.29800
C837        C  0.85774977  0.64517231  0.03607031    -0.06400
C838        C  0.78296709  0.63704710  0.03000765    -0.07200
C839        C  0.85312359  0.71293417  0.02924673    -0.07100
C840        C  0.86085762  0.64156386  0.98087258    -0.06400
C841        C  0.78693227  0.63240401  0.97532317    -0.07200
C842        C  0.85613815  0.70857778  0.97441107    -0.07100
C843        C  0.88237192  0.61735173  0.96991064    -0.32500
N844        N  0.89337687  0.60774298  0.01687358     0.14000
C845        C  0.87846476  0.62430489  0.05749779    -0.32500
H846        H  0.88136147  0.62029862  0.09942829     0.16000
C847        C  0.74306404  0.60550143  0.95596319    -0.31500
N848        N  0.71195025  0.59691066  0.99609199     0.12700
C849        C  0.73565796  0.61602474  0.04193120    -0.31500
C850        C  0.87832747  0.75176748  0.95360596    -0.31800
N851        N  0.88862647  0.78313920  0.99385077     0.13200
H852        H  0.88640934  0.75981439  0.91178959     0.15900
C853        C  0.87298075  0.76005119  0.04055028    -0.31800
H854        H  0.87609157  0.77633141  0.07937685     0.15900
H855        H  0.71988872  0.61619089  0.08022747     0.15900
H856        H  0.88827423  0.60601369  0.93119258     0.15900
H857        H  0.73419331  0.59508263  0.91466893     0.15900
C858        C  0.83918791  0.66626617  0.55582103     0.29800
C859        C  0.84602943  0.65660581  0.44839228     0.29800
C860        C  0.85855047  0.63621637  0.53611508    -0.06400
C861        C  0.79219716  0.64250374  0.52643106    -0.07200
C862        C  0.86950273  0.71149145  0.52589641    -0.07100
C863        C  0.86259743  0.63218519  0.48138782    -0.06400
C864        C  0.79664880  0.63851918  0.47120396    -0.07200
C865        C  0.87250580  0.70645094  0.47113014    -0.07100
C866        C  0.88317642  0.60723930  0.47116811    -0.32500
N867        N  0.89105807  0.59547198  0.51854228     0.14000
C868        C  0.87579255  0.61227957  0.55845967    -0.32500
H869        H  0.87838804  0.60828666  0.60045164     0.16000
C870        C  0.75321505  0.61808437  0.45043987    -0.31500
N871        N  0.72169291  0.60754701  0.49071454     0.12700
C872        C  0.74466444  0.62184563  0.53756007    -0.31500
C873        C  0.89187366  0.74970475  0.45055322    -0.31800
N874        N  0.90290246  0.78106088  0.49096606     0.13200
H875        H  0.89513389  0.75795375  0.40884549     0.15900
C876        C  0.88852877  0.75818222  0.53757772    -0.31800
H877        H  0.88991783  0.77386440  0.57639836     0.15900
H878        H  0.72759670  0.61622343  0.57625780     0.15900
H879        H  0.89286147  0.59932186  0.43248005     0.15900
H880        H  0.74473514  0.61146872  0.40866323     0.15900
N881        N  0.97205138  0.98502428  0.07640207    -0.06400
N882        N  0.96009092  0.96948895  0.12593048    -0.58500
N883        N  0.96922776  0.56934095  0.01721245    -0.06000
N884        N  0.96306468  0.60434907  0.02048891    -0.60600
N885        N  0.92898837  0.52973660  0.01657791    -0.05600
N886        N  0.89443095  0.53685296  0.01928522    -0.58500
N887        N  0.51259661  0.52473344  0.07628541    -0.05300
N888        N  0.52824328  0.53655213  0.12580154    -0.61400
C889        C  0.99566846  0.00157087  0.15672566     0.95800
C890        C  0.91634256  0.58345966  0.02287340     0.95600
N891        N  0.56337753  0.60854772  0.88843534    -0.06600
N892        N  0.57823357  0.64519980  0.85851110    -0.59100
N893        N  0.59836503  0.57021905  0.98808919    -0.04700
N894        N  0.63360464  0.58136593  0.01926305    -0.60300
N895        N  0.60687067  0.56043689  0.93916428    -0.06600
N896        N  0.64706257  0.56359150  0.93660408    -0.59300
N897        N  0.55377727  0.61705334  0.93747864    -0.04300
N898        N  0.56099464  0.65880832  0.94150242    -0.60400
Mn899      Mn  0.53450761  0.57095816  0.00555142     1.18400
C900        C  0.57592794  0.67596224  0.89236422     0.97900
C901        C  0.66345238  0.57638769  0.98643979     0.98600
N902        N  0.88021035  0.94546565  0.93652137    -0.06600
N903        N  0.83814549  0.93796134  0.94024391    -0.62900
N904        N  0.93498349  0.89073903  0.93900084    -0.05400
N905        N  0.92789682  0.84898802  0.93575096    -0.63600
N906        N  0.92490556  0.89941722  0.98774875    -0.06100
N907        N  0.90982160  0.86293223  0.01804965    -0.63200
N908        N  0.88882455  0.93552762  0.88768791    -0.05000
N909        N  0.85193019  0.92012618  0.85767310    -0.63900
Mn910      Mn  0.92588205  0.96401035  0.00516980     1.10700
C911        C  0.82090789  0.92250227  0.89117639     0.99100
C912        C  0.91250607  0.83196356  0.98496207     0.99200
N913        N  0.55886272  0.97848827  0.85679857    -0.06100
N914        N  0.59353146  0.97186034  0.84988565    -0.61500
N915        N  0.97557940  0.98258667  0.79846460    -0.05400
N916        N  0.96161830  0.96959918  0.74840690    -0.58200
N917        N  0.51596746  0.52286029  0.79845208    -0.06700
N918        N  0.52930392  0.53733260  0.74865176    -0.61100
N919        N  0.51886731  0.93874527  0.85710586    -0.05700
N920        N  0.52532626  0.90410884  0.85038112    -0.58200
Mn921      Mn  0.56191930  0.54380037  0.86999056     1.20200
Mn922      Mn  0.95356096  0.93638813  0.86996732     1.10100
Cl923      Cl  0.99402385  0.50384731  0.93734322    -0.86200
C924        C  0.57195727  0.92537983  0.84471608     0.96100
C925        C  0.49504712  0.50434708  0.71714040     0.95900
N926        N  0.97803335  0.98165147  0.57531069    -0.06400
N927        N  0.96460252  0.96761886  0.62522867    -0.58500
N928        N  0.97123257  0.56289348  0.51538648    -0.06000
N929        N  0.96298293  0.59643044  0.52073008    -0.60600
N930        N  0.93198680  0.52234002  0.51568259    -0.05600
N931        N  0.89615239  0.52728469  0.52120175    -0.58500
N932        N  0.51747438  0.52245094  0.57507236    -0.05300
N933        N  0.53105775  0.53627982  0.62511805    -0.61000
C934        C  0.99816715  0.00145672  0.65665438     0.95800
C935        C  0.91613191  0.57358610  0.52546539     0.95600
N936        N  0.56615895  0.60515604  0.38589426    -0.06600
N937        N  0.58110734  0.64178850  0.35594821    -0.59100
N938        N  0.60428805  0.57051982  0.48537280    -0.04700
N939        N  0.64128187  0.58603265  0.51535752    -0.60300
N940        N  0.61309562  0.56097029  0.43639538    -0.06600
N941        N  0.65537569  0.56890350  0.43261015    -0.59300
N942        N  0.55593982  0.61340654  0.43473200    -0.04300
N943        N  0.56283652  0.65504833  0.43854619    -0.60400
Mn944      Mn  0.53823613  0.56784720  0.50324955     1.18400
C945        C  0.57820801  0.67233943  0.38950178     0.97900
C946        C  0.67261321  0.58413247  0.48177857     0.98600
N947        N  0.88552603  0.93853186  0.43570054    -0.06600
N948        N  0.84308189  0.93001966  0.43992213    -0.62900
N949        N  0.94384655  0.88755401  0.43653935    -0.05400
N950        N  0.93859792  0.84662481  0.43281556    -0.63600
N951        N  0.93391615  0.89568192  0.48562016    -0.06100
N952        N  0.92069787  0.85953740  0.51575803    -0.63200
N953        N  0.89428320  0.92931199  0.38661814    -0.05000
N954        N  0.85717168  0.91343420  0.35681925    -0.63900
Mn955      Mn  0.93205503  0.95860269  0.50376362     1.10700
C956        C  0.82583249  0.91472949  0.39084708     0.99100
C957        C  0.92442310  0.82951258  0.48209974     0.99200
N958        N  0.56585896  0.97699810  0.35434914    -0.06100
N959        N  0.60110832  0.97119886  0.34755036    -0.61500
N960        N  0.97967782  0.97895494  0.29768773    -0.05400
N961        N  0.96360419  0.96690479  0.24835808    -0.58200
N962        N  0.51917384  0.51923148  0.29753799    -0.06700
N963        N  0.53044681  0.53490502  0.24804706    -0.61100
N964        N  0.52627350  0.93685996  0.35384943    -0.05700
N965        N  0.53361350  0.90282746  0.34657969    -0.58200
Mn966      Mn  0.56656850  0.54155983  0.36793556     1.20200
Mn967      Mn  0.96005215  0.93263967  0.36800289     1.10100
Cl968      Cl  0.99917381  0.50008609  0.43573087    -0.86200
C969        C  0.58034843  0.92481780  0.34152374     0.96100
C970        C  0.49520229  0.50223944  0.21734613     0.95900
C971        C  0.65583644  0.83956916  0.81650314     0.29800
C972        C  0.64741150  0.84847644  0.92414672     0.29800
C973        C  0.63107911  0.86432056  0.83589072    -0.06400
C974        C  0.62912700  0.79354913  0.84666387    -0.07200
C975        C  0.70217530  0.86634018  0.84645457    -0.07100
C976        C  0.62689928  0.86876800  0.89054073    -0.06400
C977        C  0.62509580  0.79860365  0.90165153    -0.07200
C978        C  0.69736802  0.87059285  0.90140150    -0.07100
C979        C  0.60465420  0.89215166  0.89989897    -0.32500
N980        N  0.59534910  0.90190423  0.85205889     0.14000
C981        C  0.61117119  0.88518700  0.81258672    -0.32500
H982        H  0.60842625  0.88810325  0.77030215     0.16000
C983        C  0.60614988  0.75570449  0.92286458    -0.31500
N984        N  0.59720452  0.72435947  0.88295766     0.12700
C985        C  0.61197530  0.74694264  0.83606562    -0.31500
C986        C  0.74072219  0.89047920  0.92225794    -0.31800
N987        N  0.77209240  0.89991125  0.88212006     0.13200
H988        H  0.74916145  0.89612028  0.96405414     0.15900
C989        C  0.74912707  0.88447306  0.83543705    -0.31800
H990        H  0.76520373  0.88547815  0.79700469     0.15900
H991        H  0.61143369  0.73090678  0.79778827     0.15900
H992        H  0.59592996  0.90147022  0.93835590     0.15900
H993        H  0.60101653  0.74768421  0.96477628     0.15900
C994        C  0.66169012  0.83625298  0.31448399     0.29800
C995        C  0.65273900  0.84514271  0.42199316     0.29800
C996        C  0.63854524  0.86269951  0.33355433    -0.06400
C997        C  0.63328350  0.79023820  0.34435823    -0.07200
C998        C  0.70778696  0.86138714  0.34490344    -0.07100
C999        C  0.63419601  0.86723013  0.38811389    -0.06400
C1000       C  0.62890952  0.79523641  0.39924295    -0.07200
C1001       C  0.70269617  0.86563871  0.39986100    -0.07100
C1002       C  0.61288574  0.89159205  0.39713554    -0.32500
N1003       N  0.60427004  0.90184504  0.34916883     0.14000
C1004       C  0.61951287  0.88434022  0.30994882    -0.32500
H1005       H  0.61656111  0.88684719  0.26761061     0.16000
C1006       C  0.60930903  0.75217877  0.42032230    -0.31500
N1007       N  0.60017132  0.72084656  0.38036295     0.12700
C1008       C  0.61575267  0.74358276  0.33365137    -0.31500
C1009       C  0.74570686  0.88447128  0.42120955    -0.31800
N1010       N  0.77716695  0.89301992  0.38138235     0.13200
H1011       H  0.75376799  0.89031152  0.46313085     0.15900
C1012       C  0.75454619  0.87829147  0.33440523    -0.31800
H1013       H  0.77072300  0.87915017  0.29607317     0.15900
H1014       H  0.61563265  0.72763369  0.29545738     0.15900
H1015       H  0.60381199  0.90073482  0.43547886     0.15900
H1016       H  0.60409971  0.74405188  0.46219185     0.15900
C1017       C  0.57205825  0.77695710  0.59221840    -0.18100
C1018       C  0.57552740  0.77302508  0.64671536    -0.20200
C1019       C  0.61482961  0.80708083  0.67425931     0.20400
C1020       C  0.65016744  0.84619943  0.64724194    -0.03200
C1021       C  0.64675722  0.85007337  0.59245202    -0.06200
C1022       C  0.60803288  0.81483846  0.56467913     0.20700
C1023       C  0.68230399  0.88896726  0.56523915     0.18800
C1024       C  0.71964098  0.92492785  0.59355858    -0.17700
C1025       C  0.72277388  0.92131932  0.64820670    -0.19900
C1026       C  0.68871177  0.88165434  0.67499910     0.20300
C1027       C  0.69198282  0.87742919  0.72937639    -0.32900
C1028       C  0.65795282  0.83771802  0.75649554     0.01000
C1029       C  0.61880073  0.80332704  0.72865421    -0.24300
C1030       C  0.60732476  0.81684997  0.50938125    -0.28900
C1031       C  0.64681074  0.85089796  0.48138952     0.06700
C1032       C  0.68115377  0.88982773  0.50978164    -0.27500
H1033       H  0.54200667  0.74977986  0.57136229     0.11400
H1034       H  0.54773854  0.74310590  0.66718073     0.12600
H1035       H  0.74698377  0.95517193  0.57324090     0.11600
H1036       H  0.75221209  0.94914915  0.66930907     0.10900
H1037       H  0.71974926  0.90642980  0.75100337     0.16300
H1038       H  0.58994686  0.77489578  0.74974900     0.12200
H1039       H  0.57725229  0.79034166  0.48808730     0.15000
H1040       H  0.70846271  0.91948440  0.48868818     0.14800
C1041       C  0.71975380  0.92514809  0.09387669    -0.18100
C1042       C  0.72552671  0.91965249  0.14721965    -0.20200
C1043       C  0.69223630  0.87950175  0.17385868     0.20400
C1044       C  0.65202617  0.84535257  0.14726593    -0.03200
C1045       C  0.64620980  0.85089058  0.09372192    -0.06200
C1046       C  0.68072167  0.89041610  0.06660821     0.20700
C1047       C  0.60610352  0.81663519  0.06698586     0.18800
C1048       C  0.57093520  0.77838953  0.09472056    -0.17700
C1049       C  0.57652184  0.77309267  0.14814649    -0.19900
C1050       C  0.61732915  0.80592983  0.17428722     0.20300
C1051       C  0.62316131  0.80084702  0.22760264    -0.32900
C1052       C  0.66349086  0.83419520  0.25453202     0.01000
C1053       C  0.69759471  0.87373786  0.22721206    -0.24300
C1054       C  0.67698595  0.89289999  0.01188653    -0.28900
C1055       C  0.64200730  0.85433173  0.98364466     0.06700
C1056       C  0.60342907  0.81975679  0.01218780    -0.27500
H1057       H  0.74640847  0.95579395  0.07355703     0.11400
H1058       H  0.75624334  0.94656477  0.16747392     0.12600
H1059       H  0.53982232  0.75200120  0.07474143     0.11600
H1060       H  0.54920809  0.74300586  0.16882127     0.10900
H1061       H  0.59445125  0.77254912  0.24898801     0.16300
H1062       H  0.72669853  0.90182814  0.24840678     0.12200
H1063       H  0.70326096  0.92321275  0.99085167     0.15000
H1064       H  0.57292438  0.79336287  0.99135524     0.14800
C1065       C  0.91709092  0.67811372  0.77552845    -0.18100
C1066       C  0.91925349  0.68406482  0.72059809    -0.20200
C1067       C  0.88261623  0.68296421  0.69552200     0.20400
C1068       C  0.84457535  0.67795236  0.72571460    -0.03200
C1069       C  0.84341858  0.67400988  0.78098876    -0.06200
C1070       C  0.87897308  0.67245303  0.80591956     0.20700
C1071       C  0.80696323  0.67221976  0.81135728     0.18800
C1072       C  0.77189250  0.67419135  0.78669636    -0.17700
C1073       C  0.77179983  0.67570436  0.73135801    -0.19900
C1074       C  0.80759434  0.67678055  0.70057079     0.20300
C1075       C  0.80639860  0.67512946  0.64506875    -0.32900
C1076       C  0.84177957  0.67485707  0.61501433     0.01000
C1077       C  0.88229523  0.68478825  0.64046782    -0.24300
C1078       C  0.87581501  0.66564578  0.86080321    -0.28900
C1079       C  0.83796644  0.66119474  0.89077552     0.06700
C1080       C  0.80624628  0.66868067  0.86606146    -0.27500
H1081       H  0.94502385  0.67774334  0.79415157     0.11400
H1082       H  0.94870131  0.68794123  0.69753536     0.12600
H1083       H  0.74385065  0.67311303  0.81006755     0.11600
H1084       H  0.74355210  0.67544983  0.71265744     0.10900
H1085       H  0.77838151  0.67455400  0.62582701     0.16300
H1086       H  0.91231283  0.69037424  0.61715632     0.12200
H1087       H  0.90385540  0.66617857  0.88010046     0.15000
H1088       H  0.78094871  0.67232898  0.88954117     0.14800
C1089       C  0.91433161  0.73163799  0.22463009    -0.18100
C1090       C  0.92018796  0.72697008  0.27808645    -0.20200
C1091       C  0.88611701  0.68794425  0.30564530     0.20400
C1092       C  0.84681805  0.65242341  0.27899294    -0.03200
C1093       C  0.84110534  0.65695921  0.22519432    -0.06200
C1094       C  0.87459186  0.69713758  0.19824423     0.20700
C1095       C  0.80221032  0.62115015  0.19830315     0.18800
C1096       C  0.77000274  0.58055019  0.22500517    -0.17700
C1097       C  0.77528555  0.57637922  0.27893058    -0.19900
C1098       C  0.81305894  0.61261448  0.30641637     0.20300
C1099       C  0.81627065  0.61129982  0.36148129    -0.32900
C1100       C  0.85094794  0.65053135  0.38907024     0.01000
C1101       C  0.88920590  0.68506396  0.36018052    -0.24300
C1102       C  0.86850867  0.70159023  0.14490461    -0.28900
C1103       C  0.82907964  0.66690574  0.11801715     0.06700
C1104       C  0.79685482  0.62610737  0.14480002    -0.27500
H1105       H  0.94062522  0.76239152  0.20407430     0.11400
H1106       H  0.95055473  0.75444554  0.29826565     0.12600
H1107       H  0.74032025  0.55245490  0.20447572     0.11600
H1108       H  0.74930157  0.54546971  0.29939548     0.10900
H1109       H  0.78993001  0.58143140  0.38316236     0.16300
H1110       H  0.92009411  0.71141677  0.38040374     0.12200
H1111       H  0.89618892  0.73078825  0.12359139     0.15000
H1112       H  0.76898279  0.59688545  0.12346544     0.14800
loop_ 
_geom_bond_atom_site_label_1 
_geom_bond_atom_site_label_2 
_geom_bond_distance 
_geom_bond_site_symmetry_2 
_ccdc_geom_bond_type 
C1            C3   1.546       .  S
C1            C5   1.548       .  S
C1            C4   1.547       .  S
C1          C269   1.499       .  S
C2            C6   1.531       .  S
C2            C8   1.527       .  S
C2            C7   1.534       .  S
C2          C245   1.501       .  S
C3           C11   1.379       .  A
C3            C6   1.390   1_554  A
C4           C15   1.393       .  A
C4            C7   1.384   1_554  A
C5           C19   1.396       .  A
C5            C8   1.383   1_554  A
C6            C9   1.382       .  A
C7           C13   1.367       .  A
C8           C16   1.366       .  A
C9           N10   1.357   1_556  A
C9           H22   1.081       .  S
N10          C11   1.354       .  A
N10          C56   1.428       .  S
C11          H12   1.083       .  S
C13          N14   1.351       .  A
C13          H23   1.083       .  S
N14          C15   1.361   1_556  A
N14          C67   1.435       .  S
C15          H21   1.082       .  S
C16          N17   1.352       .  A
C16          H18   1.083       .  S
N17          C19   1.364   1_556  A
N17          C78   1.437       .  S
C19          H20   1.082       .  S
C24          C26   1.546       .  S
C24          C28   1.533       .  S
C24          C27   1.557       .  S
C24         C242   1.499       .  S
C25          C29   1.519       .  S
C25          C31   1.537       .  S
C25          C30   1.542       .  S
C25         C266   1.510       .  S
C26          C34   1.383       .  A
C26          C29   1.383       .  A
C27          C38   1.398       .  A
C27          C30   1.397       .  A
C28          C42   1.388       .  A
C28          C31   1.384       .  A
C29          C32   1.375       .  A
C30          C36   1.371       .  A
C31          C39   1.373       .  A
C32          N33   1.354       .  A
C32          H45   1.082       .  S
N33          C34   1.353       .  A
N33         C101   1.424       .  S
C34          H35   1.082       .  S
C36          N37   1.353       .  A
C36          H46   1.081       .  S
N37          C38   1.361       .  A
N37         C112   1.440       .  S
C38          H44   1.080       .  S
C39          N40   1.352       .  A
C39          H41   1.082       .  S
N40          C42   1.357       .  A
N40         C123   1.433       .  S
C42          H43   1.082       .  S
N47          N48   1.333       .  A
N47         N887   1.318       .  A
N47         Mn76   2.260       .  S
N48          C55   1.362       .  A
N49          N51   1.315       .  A
N49          N50   1.321       .  A
N49        Mn621   2.202       .  S
N50          C56   1.351       .  A
N51          N52   1.322       .  A
N51        Mn354   2.207   1_545  S
N52          C56   1.353       .  A
N53          N54   1.332       .  A
N53         N881   1.318   1_445  A
N53         Mn65   2.252       .  S
N54         C889   1.360   1_455  A
C55         N888   1.361       .  A
C55         C970   1.522       .  S
N57          N63   1.320       .  A
N57          N58   1.328       .  A
N57         Mn87   2.218       .  S
N58          C66   1.357       .  A
N59          N60   1.328   1_556  A
N59          N61   1.320       .  A
N59         Mn65   2.214   1_556  S
N60          C67   1.358   1_554  A
N61          N62   1.313       .  A
N61         Mn87   2.211       .  S
N62          C67   1.348       .  A
N63          N64   1.314       .  A
N63         Mn65   2.206   1_556  S
N64          C66   1.347       .  A
Mn65        N605   2.202   1_455  S
Mn65       Cl645   2.564   1_454  S
C66         N150   1.435       .  S
N68          N69   1.313       .  A
N68          N74   1.321       .  A
N68         Mn76   2.207   1_556  S
N69          C77   1.347       .  A
N70          N72   1.321       .  A
N70          N71   1.315       .  A
N70         Mn88   2.220       .  S
N71          C78   1.350       .  A
N72          N73   1.328   1_556  A
N72         Mn76   2.217   1_556  S
N73          C78   1.357   1_554  A
N74          N75   1.328       .  A
N74         Mn88   2.216       .  S
N75          C77   1.357       .  A
Mn76        N329   2.206       .  S
Mn76       Cl367   2.562   1_554  S
C77         N153   1.434       .  S
N79          N80   1.320       .  A
N79          N85   1.313       .  A
N79        Mn365   2.194       .  S
N80          C90   1.352       .  A
N81          N82   1.334       .  A
N81         N917   1.321       .  A
N81         Mn88   2.268       .  S
N82         C925   1.362       .  A
N83          N84   1.333       .  A
N83         N915   1.321   1_445  A
N83         Mn87   2.260       .  S
N84          C91   1.361   1_455  A
N85          N86   1.319       .  A
N85        Mn644   2.193   1_455  S
N86          C90   1.351       .  A
Mn87        N357   2.194   1_545  S
Mn87       Cl645   2.562   1_455  S
Mn88        N641   2.193       .  S
Mn88       Cl367   2.563       .  S
Cl89       Mn621   2.564   1_556  S
Cl89       Mn354   2.563   1_546  S
Cl89       Mn643   2.562       .  S
Cl89       Mn366   2.561   1_545  S
C90         N146   1.423       .  S
C91         N916   1.362   1_545  A
C91         C934   1.528       .  S
N92          N93   1.333       .  A
N92         N932   1.321       .  A
N92        Mn121   2.258       .  S
N93         C100   1.361       .  A
N94          N96   1.315       .  A
N94          N95   1.320       .  A
N94        Mn666   2.206       .  S
N95         C101   1.353       .  A
N96          N97   1.320       .  A
N96        Mn399   2.193   1_545  S
N97         C101   1.350       .  A
N98          N99   1.334       .  A
N98         N926   1.320   1_445  A
N98        Mn110   2.264       .  S
N99         C934   1.362   1_455  A
C100        N933   1.362       .  A
C100        C925   1.528       .  S
N102        N108   1.321       .  A
N102        N103   1.328       .  A
N102       Mn132   2.212       .  S
N103        C111   1.356       .  A
N104        N105   1.329       .  A
N104        N106   1.322       .  A
N104       Mn110   2.229       .  S
N105        C112   1.359       .  A
N106        N107   1.315       .  A
N106       Mn132   2.217       .  S
N107        C112   1.348       .  A
N108        N109   1.314       .  A
N108       Mn110   2.211       .  S
N109        C111   1.347       .  A
Mn110       N650   2.206   1_455  S
Mn110      Cl690   2.563   1_455  S
C111        N173   1.435       .  S
N113        N114   1.314       .  A
N113        N119   1.320       .  A
N113       Mn121   2.206       .  S
N114        C122   1.347       .  A
N115        N117   1.321       .  A
N115        N116   1.313       .  A
N115       Mn133   2.210       .  S
N116        C123   1.347       .  A
N117        N118   1.327       .  A
N117       Mn121   2.214       .  S
N118        C123   1.357       .  A
N119        N120   1.328       .  A
N119       Mn133   2.213       .  S
N120        C122   1.357       .  A
Mn121       N374   2.193       .  S
Mn121      Cl412   2.563       .  S
C122        N176   1.434       .  S
N124        N125   1.320       .  A
N124        N130   1.314       .  A
N124       Mn410   2.198       .  S
N125        C135   1.352       .  A
N126        N127   1.332       .  A
N126        N962   1.320       .  A
N126       Mn133   2.256       .  S
N127        C970   1.361       .  A
N128        N129   1.332       .  A
N128        N960   1.320   1_445  A
N128       Mn132   2.264       .  S
N129        C136   1.362   1_455  A
N130        N131   1.320       .  A
N130       Mn689   2.198   1_455  S
N131        C135   1.352       .  A
Mn132       N402   2.199   1_545  S
Mn132      Cl690   2.563   1_455  S
Mn133       N686   2.198       .  S
Mn133      Cl412   2.565       .  S
Cl134      Mn666   2.563       .  S
Cl134      Mn399   2.564   1_545  S
Cl134      Mn688   2.563       .  S
Cl134      Mn411   2.565   1_545  S
C135        N169   1.425       .  S
C136        N961   1.361   1_545  A
C136        C889   1.521       .  S
C137        C139   1.535       .  S
C137        C141   1.546       .  S
C137        C140   1.547       .  S
C137        C194   1.505       .  S
C138        C142   1.517       .  S
C138        C144   1.541       .  S
C138        C143   1.542       .  S
C138        C221   1.515       .  S
C139        C147   1.378       .  A
C139        C142   1.383       .  A
C140        C151   1.391       .  A
C140        C143   1.394       .  A
C141        C155   1.391       .  A
C141        C144   1.393       .  A
C142        C145   1.374       .  A
C143        C149   1.372       .  A
C144        C152   1.371       .  A
C145        N146   1.354       .  A
C145        H158   1.083       .  S
N146        C147   1.354       .  A
C147        H148   1.083       .  S
C149        N150   1.353       .  A
C149        H159   1.082       .  S
N150        C151   1.359       .  A
C151        H157   1.082       .  S
C152        N153   1.353       .  A
C152        H154   1.081       .  S
N153        C155   1.359       .  A
C155        H156   1.081       .  S
C160        C162   1.537       .  S
C160        C164   1.545       .  S
C160        C163   1.546       .  S
C160        C218   1.504       .  S
C161        C165   1.518       .  S
C161        C167   1.540       .  S
C161        C166   1.541       .  S
C161        C197   1.515       .  S
C162        C170   1.380       .  A
C162        C165   1.382       .  A
C163        C174   1.392       .  A
C163        C166   1.393       .  A
C164        C178   1.390       .  A
C164        C167   1.394       .  A
C165        C168   1.375       .  A
C166        C172   1.372       .  A
C167        C175   1.369       .  A
C168        N169   1.355       .  A
C168        H181   1.082       .  S
N169        C170   1.355       .  A
C170        H171   1.083       .  S
C172        N173   1.352       .  A
C172        H182   1.082       .  S
N173        C174   1.358       .  A
C174        H180   1.081       .  S
C175        N176   1.354       .  A
C175        H177   1.082       .  S
N176        C178   1.360       .  A
C178        H179   1.082       .  S
C183        C184   1.396       .  A
C183        C188   1.402       .  A
C183        H199   1.083       .  S
C184        C185   1.403       .  A
C184        H200   1.084       .  S
C185        C195   1.396       .  A
C185        C186   1.410       .  A
C186        C192   1.408       .  A
C186        C187   1.403       .  A
C187        C189   1.410       .  A
C187        C188   1.409       .  A
C188        C196   1.394       .  A
C189        C198   1.396       .  A
C189        C190   1.402       .  A
C190        C191   1.396       .  A
C190        H201   1.083       .  S
C191        C192   1.403       .  A
C191        H202   1.083       .  S
C192        C193   1.394       .  A
C193        C194   1.408       .  A
C193        H203   1.081       .  S
C194        C195   1.408       .  A
C195        H204   1.082       .  S
C196        C197   1.405       .  A
C196        H205   1.081       .  S
C197        C198   1.405       .  A
C198        H206   1.082       .  S
C207        C208   1.397       .  A
C207        C212   1.402       .  A
C207        H223   1.083       .  S
C208        C209   1.404       .  A
C208        H224   1.084       .  S
C209        C219   1.396       .  A
C209        C210   1.409       .  A
C210        C216   1.408       .  A
C210        C211   1.402       .  A
C211        C213   1.410       .  A
C211        C212   1.409       .  A
C212        C220   1.395       .  A
C213        C222   1.394       .  A
C213        C214   1.401       .  A
C214        C215   1.395       .  A
C214        H225   1.083       .  S
C215        C216   1.403       .  A
C215        H226   1.084       .  S
C216        C217   1.393       .  A
C217        C218   1.408       .  A
C217        H227   1.082       .  S
C218        C219   1.408       .  A
C219        H228   1.083       .  S
C220        C221   1.405   1_554  A
C220        H229   1.082   1_554  S
C221        C222   1.404   1_556  A
C222        H230   1.082   1_554  S
C231        C232   1.396       .  A
C231        C236   1.402       .  A
C231        H247   1.084       .  S
C232        C233   1.403       .  A
C232        H248   1.083       .  S
C233        C243   1.387       .  A
C233        C234   1.404       .  A
C234        C240   1.413       .  A
C234        C235   1.396       .  A
C235        C237   1.403       .  A
C235        C236   1.413       .  A
C236        C244   1.397       .  A
C237        C246   1.381       .  A
C237        C238   1.402       .  A
C238        C239   1.392       .  A
C238        H249   1.084       .  S
C239        C240   1.400       .  A
C239        H250   1.084       .  S
C240        C241   1.393       .  A
C241        C242   1.398       .  A
C241        H251   1.079       .  S
C242        C243   1.408       .  A
C243        H252   1.084       .  S
C244        C245   1.403       .  A
C244        H253   1.080       .  S
C245        C246   1.409       .  A
C246        H254   1.082       .  S
C255        C256   1.393       .  A
C255        C260   1.402       .  A
C255        H271   1.084       .  S
C256        C257   1.401       .  A
C256        H272   1.084       .  S
C257        C267   1.390       .  A
C257        C258   1.408       .  A
C258        C264   1.411       .  A
C258        C259   1.400       .  A
C259        C261   1.408       .  A
C259        C260   1.410       .  A
C260        C268   1.391       .  A
C261        C270   1.393       .  A
C261        C262   1.404       .  A
C262        C263   1.396       .  A
C262        H273   1.084       .  S
C263        C264   1.401       .  A
C263        H274   1.083       .  S
C264        C265   1.395       .  A
C265        C266   1.403       .  A
C265        H275   1.082       .  S
C266        C267   1.403       .  A
C267        H276   1.081       .  S
C268        C269   1.404       .  A
C268        H277   1.081       .  S
C269        C270   1.409       .  A
C270        H278   1.082       .  S
C279        C281   1.546       .  S
C279        C283   1.547       .  S
C279        C282   1.547       .  S
C279        C547   1.498       .  S
C280        C284   1.531       .  S
C280        C286   1.527       .  S
C280        C285   1.534       .  S
C280        C523   1.501       .  S
C281        C289   1.379       .  A
C281        C284   1.390   1_554  A
C282        C293   1.393       .  A
C282        C285   1.384   1_554  A
C283        C297   1.396       .  A
C283        C286   1.383   1_554  A
C284        C287   1.382       .  A
C285        C291   1.367       .  A
C286        C294   1.366       .  A
C287        N288   1.357   1_556  A
C287        H300   1.081       .  S
N288        C289   1.354       .  A
N288        C334   1.428       .  S
C289        H290   1.082       .  S
C291        N292   1.351       .  A
C291        H301   1.083       .  S
N292        C293   1.361   1_556  A
N292        C345   1.435       .  S
C293        H299   1.082       .  S
C294        N295   1.353       .  A
C294        H296   1.083       .  S
N295        C297   1.363   1_556  A
N295        C356   1.437       .  S
C297        H298   1.082       .  S
C302        C304   1.546       .  S
C302        C306   1.533       .  S
C302        C305   1.557       .  S
C302        C520   1.499       .  S
C303        C307   1.519       .  S
C303        C309   1.537       .  S
C303        C308   1.541       .  S
C303        C544   1.509       .  S
C304        C312   1.383       .  A
C304        C307   1.383       .  A
C305        C316   1.398       .  A
C305        C308   1.397       .  A
C306        C320   1.388       .  A
C306        C309   1.384       .  A
C307        C310   1.375       .  A
C308        C314   1.370       .  A
C309        C317   1.373       .  A
C310        N311   1.354       .  A
C310        H323   1.082       .  S
N311        C312   1.353       .  A
N311        C379   1.424       .  S
C312        H313   1.082       .  S
C314        N315   1.353       .  A
C314        H324   1.081       .  S
N315        C316   1.361       .  A
N315        C390   1.439       .  S
C316        H322   1.080       .  S
C317        N318   1.352       .  A
C317        H319   1.082       .  S
N318        C320   1.357       .  A
N318        C401   1.433       .  S
C320        H321   1.082       .  S
N325        N326   1.333       .  A
N325        N609   1.318   1_565  A
N325       Mn354   2.259       .  S
N326        C333   1.362   1_565  A
N327        N329   1.315       .  A
N327        N328   1.321       .  A
N327       Mn899   2.201       .  S
N328        C334   1.351       .  A
N329        N330   1.322       .  A
N330        C334   1.352       .  A
N331        N603   1.318   1_455  A
N331        N332   1.332       .  A
N331       Mn343   2.254       .  S
N332        C611   1.361   1_455  A
C333        N610   1.360       .  A
C333        C692   1.521       .  S
N335        N341   1.320       .  A
N335        N336   1.328       .  A
N335       Mn365   2.218       .  S
N336        C344   1.357       .  A
N337        N338   1.328   1_556  A
N337        N339   1.320       .  A
N337       Mn343   2.213   1_556  S
N338        C345   1.358   1_554  A
N339        N340   1.313       .  A
N339       Mn365   2.212       .  S
N340        C345   1.349       .  A
N341        N342   1.314       .  A
N341       Mn343   2.206   1_556  S
N342        C344   1.347       .  A
Mn343       N883   2.201   1_455  S
Mn343      Cl923   2.565   1_454  S
C344        N428   1.435       .  S
N346        N347   1.313       .  A
N346        N352   1.321       .  A
N346       Mn354   2.207   1_556  S
N347        C355   1.347       .  A
N348        N350   1.321       .  A
N348        N349   1.315       .  A
N348       Mn366   2.219       .  S
N349        C356   1.349       .  A
N350        N351   1.328   1_556  A
N350       Mn354   2.217   1_556  S
N351        C356   1.357   1_554  A
N352        N353   1.328       .  A
N352       Mn366   2.215       .  S
N353        C355   1.357       .  A
C355        N431   1.434       .  S
N357        N358   1.320       .  A
N357        N363   1.313       .  A
N358        C368   1.352       .  A
N359        N360   1.334       .  A
N359        N639   1.321   1_565  A
N359       Mn366   2.268       .  S
N360        C647   1.362   1_565  A
N361        N637   1.321   1_455  A
N361        N362   1.334       .  A
N361       Mn365   2.262       .  S
N362        C369   1.362   1_455  A
N363        N364   1.319       .  A
N363       Mn922   2.193   1_455  S
N364        C368   1.351       .  A
Mn365      Cl923   2.562   1_455  S
Mn366       N919   2.193       .  S
Cl367      Mn899   2.565   1_556  S
Cl367      Mn921   2.562       .  S
C368        N424   1.422       .  S
C369        N638   1.362       .  A
C369        C656   1.528       .  S
N370        N371   1.333       .  A
N370        N654   1.320   1_565  A
N370       Mn399   2.257       .  S
N371        C378   1.361   1_565  A
N372        N374   1.315       .  A
N372        N373   1.320       .  A
N372       Mn944   2.205       .  S
N373        C379   1.353       .  A
N374        N375   1.320       .  A
N375        C379   1.350       .  A
N376        N648   1.321   1_455  A
N376        N377   1.334       .  A
N376       Mn388   2.263       .  S
N377        C656   1.362   1_455  A
C378        N655   1.362       .  A
C378        C647   1.528       .  S
N380        N386   1.320       .  A
N380        N381   1.327       .  A
N380       Mn410   2.210       .  S
N381        C389   1.356       .  A
N382        N383   1.329       .  A
N382        N384   1.322       .  A
N382       Mn388   2.229       .  S
N383        C390   1.359       .  A
N384        N385   1.315       .  A
N384       Mn410   2.216       .  S
N385        C390   1.348       .  A
N386        N387   1.314       .  A
N386       Mn388   2.211       .  S
N387        C389   1.348       .  A
Mn388       N928   2.205   1_455  S
Mn388      Cl968   2.564   1_455  S
C389        N451   1.435       .  S
N391        N392   1.313       .  A
N391        N397   1.320       .  A
N391       Mn399   2.206       .  S
N392        C400   1.347       .  A
N393        N395   1.321       .  A
N393        N394   1.313       .  A
N393       Mn411   2.209       .  S
N394        C401   1.347       .  A
N395        N396   1.327       .  A
N395       Mn399   2.215       .  S
N396        C401   1.357       .  A
N397        N398   1.328       .  A
N397       Mn411   2.212       .  S
N398        C400   1.357       .  A
C400        N454   1.434       .  S
N402        N403   1.321       .  A
N402        N408   1.313       .  A
N403        C413   1.353       .  A
N404        N405   1.332       .  A
N404        N684   1.320   1_565  A
N404       Mn411   2.254       .  S
N405        C692   1.361   1_565  A
N406        N682   1.320   1_455  A
N406        N407   1.332       .  A
N406       Mn410   2.262       .  S
N407        C414   1.362   1_455  A
N408        N409   1.319       .  A
N408       Mn967   2.196   1_455  S
N409        C413   1.351       .  A
Mn410      Cl968   2.564   1_455  S
Mn411       N964   2.196       .  S
Cl412      Mn944   2.564       .  S
Cl412      Mn966   2.564       .  S
C413        N447   1.425       .  S
C414        N683   1.361       .  A
C414        C611   1.522       .  S
C415        C417   1.536       .  S
C415        C419   1.546       .  S
C415        C418   1.547       .  S
C415        C472   1.505       .  S
C416        C420   1.517       .  S
C416        C422   1.540       .  S
C416        C421   1.541       .  S
C416        C499   1.515       .  S
C417        C425   1.378       .  A
C417        C420   1.383       .  A
C418        C429   1.391       .  A
C418        C421   1.394       .  A
C419        C433   1.391       .  A
C419        C422   1.392       .  A
C420        C423   1.373       .  A
C421        C427   1.371       .  A
C422        C430   1.370       .  A
C423        N424   1.354       .  A
C423        H436   1.083       .  S
N424        C425   1.354       .  A
C425        H426   1.083       .  S
C427        N428   1.353       .  A
C427        H437   1.082       .  S
N428        C429   1.359       .  A
C429        H435   1.081       .  S
C430        N431   1.352       .  A
C430        H432   1.081       .  S
N431        C433   1.359       .  A
C433        H434   1.081       .  S
C438        C440   1.537       .  S
C438        C442   1.546       .  S
C438        C441   1.546       .  S
C438        C496   1.504       .  S
C439        C443   1.518       .  S
C439        C445   1.540       .  S
C439        C444   1.541       .  S
C439        C475   1.514       .  S
C440        C448   1.380       .  A
C440        C443   1.382       .  A
C441        C452   1.391       .  A
C441        C444   1.392       .  A
C442        C456   1.390       .  A
C442        C445   1.394       .  A
C443        C446   1.375       .  A
C444        C450   1.372       .  A
C445        C453   1.370       .  A
C446        N447   1.355       .  A
C446        H459   1.082       .  S
N447        C448   1.355       .  A
C448        H449   1.083       .  S
C450        N451   1.352       .  A
C450        H460   1.082       .  S
N451        C452   1.359       .  A
C452        H458   1.082       .  S
C453        N454   1.354       .  A
C453        H455   1.082       .  S
N454        C456   1.360       .  A
C456        H457   1.082       .  S
C461        C462   1.396       .  A
C461        C466   1.402       .  A
C461        H477   1.083       .  S
C462        C463   1.403       .  A
C462        H478   1.084       .  S
C463        C473   1.396       .  A
C463        C464   1.410       .  A
C464        C470   1.408       .  A
C464        C465   1.403       .  A
C465        C467   1.410       .  A
C465        C466   1.409       .  A
C466        C474   1.394       .  A
C467        C476   1.396       .  A
C467        C468   1.402       .  A
C468        C469   1.396       .  A
C468        H479   1.083       .  S
C469        C470   1.403       .  A
C469        H480   1.083       .  S
C470        C471   1.394       .  A
C471        C472   1.408       .  A
C471        H481   1.081       .  S
C472        C473   1.408       .  A
C473        H482   1.082       .  S
C474        C475   1.405       .  A
C474        H483   1.081       .  S
C475        C476   1.405       .  A
C476        H484   1.082       .  S
C485        C486   1.396       .  A
C485        C490   1.402       .  A
C485        H501   1.083       .  S
C486        C487   1.403       .  A
C486        H502   1.084       .  S
C487        C497   1.396       .  A
C487        C488   1.409       .  A
C488        C494   1.408       .  A
C488        C489   1.402       .  A
C489        C491   1.410       .  A
C489        C490   1.409       .  A
C490        C498   1.395       .  A
C491        C500   1.395       .  A
C491        C492   1.401       .  A
C492        C493   1.395       .  A
C492        H503   1.083       .  S
C493        C494   1.403       .  A
C493        H504   1.084       .  S
C494        C495   1.393       .  A
C495        C496   1.408       .  A
C495        H505   1.082       .  S
C496        C497   1.408       .  A
C497        H506   1.082       .  S
C498        C499   1.405   1_554  A
C498        H507   1.082   1_554  S
C499        C500   1.404   1_556  A
C500        H508   1.082   1_554  S
C509        C510   1.395       .  A
C509        C514   1.402       .  A
C509        H525   1.084       .  S
C510        C511   1.403       .  A
C510        H526   1.083       .  S
C511        C521   1.387       .  A
C511        C512   1.404       .  A
C512        C518   1.413       .  A
C512        C513   1.397       .  A
C513        C515   1.403       .  A
C513        C514   1.413       .  A
C514        C522   1.397       .  A
C515        C524   1.382       .  A
C515        C516   1.402       .  A
C516        C517   1.392       .  A
C516        H527   1.084       .  S
C517        C518   1.400       .  A
C517        H528   1.084       .  S
C518        C519   1.393       .  A
C519        C520   1.398       .  A
C519        H529   1.078       .  S
C520        C521   1.408       .  A
C521        H530   1.083       .  S
C522        C523   1.403       .  A
C522        H531   1.080       .  S
C523        C524   1.409       .  A
C524        H532   1.082       .  S
C533        C534   1.393       .  A
C533        C538   1.402       .  A
C533        H549   1.084       .  S
C534        C535   1.401       .  A
C534        H550   1.084       .  S
C535        C545   1.389       .  A
C535        C536   1.408       .  A
C536        C542   1.411       .  A
C536        C537   1.399       .  A
C537        C539   1.407       .  A
C537        C538   1.410       .  A
C538        C546   1.390       .  A
C539        C548   1.392       .  A
C539        C540   1.404       .  A
C540        C541   1.396       .  A
C540        H551   1.084       .  S
C541        C542   1.402       .  A
C541        H552   1.083       .  S
C542        C543   1.396       .  A
C543        C544   1.404       .  A
C543        H553   1.082       .  S
C544        C545   1.403       .  A
C545        H554   1.081       .  S
C546        C547   1.404       .  A
C546        H555   1.081       .  S
C547        C548   1.409       .  A
C548        H556   1.082       .  S
C557        C559   1.546       .  S
C557        C561   1.548       .  S
C557        C560   1.547       .  S
C557        C825   1.499       .  S
C558        C562   1.531       .  S
C558        C564   1.527       .  S
C558        C563   1.534       .  S
C558        C801   1.501       .  S
C559        C567   1.379       .  A
C559        C562   1.390   1_554  A
C560        C571   1.393       .  A
C560        C563   1.384   1_554  A
C561        C575   1.396       .  A
C561        C564   1.383   1_554  A
C562        C565   1.382       .  A
C563        C569   1.367       .  A
C564        C572   1.366       .  A
C565        N566   1.357   1_556  A
C565        H578   1.081       .  S
N566        C567   1.354       .  A
N566        C612   1.428       .  S
C567        H568   1.083       .  S
C569        N570   1.351       .  A
C569        H579   1.083       .  S
N570        C571   1.361   1_556  A
N570        C623   1.435       .  S
C571        H577   1.082       .  S
C572        N573   1.352       .  A
C572        H574   1.083       .  S
N573        C575   1.364   1_556  A
N573        C634   1.437       .  S
C575        H576   1.082       .  S
C580        C582   1.546       .  S
C580        C584   1.533       .  S
C580        C583   1.557       .  S
C580        C798   1.499       .  S
C581        C585   1.519       .  S
C581        C587   1.537       .  S
C581        C586   1.542       .  S
C581        C822   1.510       .  S
C582        C590   1.383       .  A
C582        C585   1.383       .  A
C583        C594   1.398       .  A
C583        C586   1.397       .  A
C584        C598   1.388       .  A
C584        C587   1.384       .  A
C585        C588   1.375       .  A
C586        C592   1.371       .  A
C587        C595   1.373       .  A
C588        N589   1.354       .  A
C588        H601   1.082       .  S
N589        C590   1.353       .  A
N589        C657   1.424       .  S
C590        H591   1.082       .  S
C592        N593   1.353       .  A
C592        H602   1.081       .  S
N593        C594   1.361       .  A
N593        C668   1.440       .  S
C594        H600   1.080       .  S
C595        N596   1.352       .  A
C595        H597   1.082       .  S
N596        C598   1.357       .  A
N596        C679   1.433       .  S
C598        H599   1.082       .  S
N603        N604   1.333       .  A
N603       Mn632   2.260       .  S
N604        C611   1.362       .  A
N605        N607   1.315       .  A
N605        N606   1.321       .  A
N606        C612   1.351       .  A
N607        N608   1.322       .  A
N607       Mn910   2.207   1_545  S
N608        C612   1.353       .  A
N609        N610   1.332       .  A
N609       Mn621   2.252       .  S
N613        N619   1.320       .  A
N613        N614   1.328       .  A
N613       Mn643   2.218       .  S
N614        C622   1.357       .  A
N615        N616   1.328   1_556  A
N615        N617   1.320       .  A
N615       Mn621   2.214   1_556  S
N616        C623   1.358   1_554  A
N617        N618   1.313       .  A
N617       Mn643   2.211       .  S
N618        C623   1.348       .  A
N619        N620   1.314       .  A
N619       Mn621   2.206   1_556  S
N620        C622   1.347       .  A
C622        N706   1.435       .  S
N624        N625   1.313       .  A
N624        N630   1.321       .  A
N624       Mn632   2.207   1_556  S
N625        C633   1.347       .  A
N626        N628   1.321       .  A
N626        N627   1.315       .  A
N626       Mn644   2.220       .  S
N627        C634   1.350       .  A
N628        N629   1.328   1_556  A
N628       Mn632   2.217   1_556  S
N629        C634   1.357   1_554  A
N630        N631   1.328       .  A
N630       Mn644   2.216       .  S
N631        C633   1.357       .  A
Mn632       N885   2.206       .  S
Mn632      Cl923   2.562   1_554  S
C633        N709   1.434       .  S
N635        N636   1.320       .  A
N635        N641   1.313       .  A
N635       Mn921   2.194       .  S
N636        C646   1.352       .  A
N637        N638   1.334       .  A
N637       Mn644   2.268       .  S
N639        N640   1.333       .  A
N639       Mn643   2.260       .  S
N640        C647   1.361       .  A
N641        N642   1.319       .  A
N642        C646   1.351       .  A
Mn643       N913   2.194   1_545  S
Mn644      Cl923   2.563       .  S
Cl645      Mn910   2.563   1_546  S
Cl645      Mn922   2.561   1_545  S
C646        N702   1.423       .  S
N648        N649   1.333       .  A
N648       Mn677   2.258       .  S
N649        C656   1.361       .  A
N650        N652   1.315       .  A
N650        N651   1.320       .  A
N651        C657   1.353       .  A
N652        N653   1.320       .  A
N652       Mn955   2.193   1_545  S
N653        C657   1.350       .  A
N654        N655   1.334       .  A
N654       Mn666   2.264       .  S
N658        N664   1.321       .  A
N658        N659   1.328       .  A
N658       Mn688   2.212       .  S
N659        C667   1.356       .  A
N660        N661   1.329       .  A
N660        N662   1.322       .  A
N660       Mn666   2.229       .  S
N661        C668   1.359       .  A
N662        N663   1.315       .  A
N662       Mn688   2.217       .  S
N663        C668   1.348       .  A
N664        N665   1.314       .  A
N664       Mn666   2.211       .  S
N665        C667   1.347       .  A
C667        N729   1.435       .  S
N669        N670   1.314       .  A
N669        N675   1.320       .  A
N669       Mn677   2.206       .  S
N670        C678   1.347       .  A
N671        N673   1.321       .  A
N671        N672   1.313       .  A
N671       Mn689   2.210       .  S
N672        C679   1.347       .  A
N673        N674   1.327       .  A
N673       Mn677   2.214       .  S
N674        C679   1.357       .  A
N675        N676   1.328       .  A
N675       Mn689   2.213       .  S
N676        C678   1.357       .  A
Mn677       N930   2.193       .  S
Mn677      Cl968   2.563       .  S
C678        N732   1.434       .  S
N680        N681   1.320       .  A
N680        N686   1.314       .  A
N680       Mn966   2.198       .  S
N681        C691   1.352       .  A
N682        N683   1.332       .  A
N682       Mn689   2.256       .  S
N684        N685   1.332       .  A
N684       Mn688   2.264       .  S
N685        C692   1.362       .  A
N686        N687   1.320       .  A
N687        C691   1.352       .  A
Mn688       N958   2.199   1_545  S
Mn689      Cl968   2.565       .  S
Cl690      Mn955   2.564   1_545  S
Cl690      Mn967   2.565   1_545  S
C691        N725   1.425       .  S
C693        C695   1.535       .  S
C693        C697   1.546       .  S
C693        C696   1.547       .  S
C693        C750   1.505       .  S
C694        C698   1.517       .  S
C694        C700   1.541       .  S
C694        C699   1.542       .  S
C694        C777   1.515       .  S
C695        C703   1.378       .  A
C695        C698   1.383       .  A
C696        C707   1.391       .  A
C696        C699   1.394       .  A
C697        C711   1.391       .  A
C697        C700   1.393       .  A
C698        C701   1.374       .  A
C699        C705   1.372       .  A
C700        C708   1.371       .  A
C701        N702   1.354       .  A
C701        H714   1.083       .  S
N702        C703   1.354       .  A
C703        H704   1.083       .  S
C705        N706   1.353       .  A
C705        H715   1.082       .  S
N706        C707   1.359       .  A
C707        H713   1.082       .  S
C708        N709   1.353       .  A
C708        H710   1.081       .  S
N709        C711   1.359       .  A
C711        H712   1.081       .  S
C716        C718   1.537       .  S
C716        C720   1.545       .  S
C716        C719   1.546       .  S
C716        C774   1.504       .  S
C717        C721   1.518       .  S
C717        C723   1.540       .  S
C717        C722   1.541       .  S
C717        C753   1.515       .  S
C718        C726   1.380       .  A
C718        C721   1.382       .  A
C719        C730   1.392       .  A
C719        C722   1.393       .  A
C720        C734   1.390       .  A
C720        C723   1.394       .  A
C721        C724   1.375       .  A
C722        C728   1.372       .  A
C723        C731   1.369       .  A
C724        N725   1.355       .  A
C724        H737   1.082       .  S
N725        C726   1.355       .  A
C726        H727   1.083       .  S
C728        N729   1.352       .  A
C728        H738   1.082       .  S
N729        C730   1.358       .  A
C730        H736   1.081       .  S
C731        N732   1.354       .  A
C731        H733   1.082       .  S
N732        C734   1.360       .  A
C734        H735   1.082       .  S
C739        C740   1.396       .  A
C739        C744   1.402       .  A
C739        H755   1.083       .  S
C740        C741   1.403       .  A
C740        H756   1.084       .  S
C741        C751   1.396       .  A
C741        C742   1.410       .  A
C742        C748   1.408       .  A
C742        C743   1.403       .  A
C743        C745   1.410       .  A
C743        C744   1.409       .  A
C744        C752   1.394       .  A
C745        C754   1.397       .  A
C745        C746   1.402       .  A
C746        C747   1.396       .  A
C746        H757   1.083       .  S
C747        C748   1.403       .  A
C747        H758   1.083       .  S
C748        C749   1.394       .  A
C749        C750   1.408       .  A
C749        H759   1.081       .  S
C750        C751   1.408       .  A
C751        H760   1.082       .  S
C752        C753   1.405       .  A
C752        H761   1.081       .  S
C753        C754   1.405       .  A
C754        H762   1.082       .  S
C763        C764   1.397       .  A
C763        C768   1.402       .  A
C763        H779   1.083       .  S
C764        C765   1.404       .  A
C764        H780   1.084       .  S
C765        C775   1.396       .  A
C765        C766   1.409       .  A
C766        C772   1.408       .  A
C766        C767   1.402       .  A
C767        C769   1.410       .  A
C767        C768   1.409       .  A
C768        C776   1.395       .  A
C769        C778   1.394       .  A
C769        C770   1.401       .  A
C770        C771   1.395       .  A
C770        H781   1.083       .  S
C771        C772   1.403       .  A
C771        H782   1.084       .  S
C772        C773   1.393       .  A
C773        C774   1.408       .  A
C773        H783   1.082       .  S
C774        C775   1.408       .  A
C775        H784   1.083       .  S
C776        C777   1.405   1_554  A
C776        H785   1.082   1_554  S
C777        C778   1.404   1_556  A
C778        H786   1.082   1_554  S
C787        C788   1.396       .  A
C787        C792   1.402       .  A
C787        H803   1.084       .  S
C788        C789   1.403       .  A
C788        H804   1.083       .  S
C789        C799   1.387       .  A
C789        C790   1.404       .  A
C790        C796   1.413       .  A
C790        C791   1.396       .  A
C791        C793   1.403       .  A
C791        C792   1.413       .  A
C792        C800   1.397       .  A
C793        C802   1.381       .  A
C793        C794   1.402       .  A
C794        C795   1.392       .  A
C794        H805   1.084       .  S
C795        C796   1.400       .  A
C795        H806   1.084       .  S
C796        C797   1.393       .  A
C797        C798   1.398       .  A
C797        H807   1.079       .  S
C798        C799   1.408       .  A
C799        H808   1.084       .  S
C800        C801   1.403       .  A
C800        H809   1.080       .  S
C801        C802   1.409       .  A
C802        H810   1.082       .  S
C811        C812   1.393       .  A
C811        C816   1.402       .  A
C811        H827   1.084       .  S
C812        C813   1.401       .  A
C812        H828   1.084       .  S
C813        C823   1.390       .  A
C813        C814   1.408       .  A
C814        C820   1.411       .  A
C814        C815   1.400       .  A
C815        C817   1.408       .  A
C815        C816   1.410       .  A
C816        C824   1.391       .  A
C817        C826   1.393       .  A
C817        C818   1.404       .  A
C818        C819   1.396       .  A
C818        H829   1.084       .  S
C819        C820   1.401       .  A
C819        H830   1.083       .  S
C820        C821   1.395       .  A
C821        C822   1.403       .  A
C821        H831   1.082       .  S
C822        C823   1.403       .  A
C823        H832   1.081       .  S
C824        C825   1.404       .  A
C824        H833   1.081       .  S
C825        C826   1.409       .  A
C826        H834   1.082       .  S
C835        C837   1.546       .  S
C835        C839   1.547       .  S
C835        C838   1.547       .  S
C835       C1103   1.498       .  S
C836        C840   1.531       .  S
C836        C842   1.527       .  S
C836        C841   1.534       .  S
C836       C1079   1.501       .  S
C837        C845   1.379       .  A
C837        C840   1.390   1_554  A
C838        C849   1.393       .  A
C838        C841   1.384   1_554  A
C839        C853   1.396       .  A
C839        C842   1.383   1_554  A
C840        C843   1.382       .  A
C841        C847   1.367       .  A
C842        C850   1.366       .  A
C843        N844   1.357   1_556  A
C843        H856   1.081       .  S
N844        C845   1.354       .  A
N844        C890   1.428       .  S
C845        H846   1.083       .  S
C847        N848   1.351       .  A
C847        H857   1.083       .  S
N848        C849   1.361   1_556  A
N848        C901   1.435       .  S
C849        H855   1.082       .  S
C850        N851   1.353       .  A
C850        H852   1.083       .  S
N851        C853   1.363   1_556  A
N851        C912   1.437       .  S
C853        H854   1.082       .  S
C858        C860   1.546       .  S
C858        C862   1.533       .  S
C858        C861   1.557       .  S
C858       C1076   1.499       .  S
C859        C863   1.519       .  S
C859        C865   1.537       .  S
C859        C864   1.541       .  S
C859       C1100   1.509       .  S
C860        C868   1.383       .  A
C860        C863   1.383       .  A
C861        C872   1.398       .  A
C861        C864   1.397       .  A
C862        C876   1.388       .  A
C862        C865   1.384       .  A
C863        C866   1.375       .  A
C864        C870   1.370       .  A
C865        C873   1.373       .  A
C866        N867   1.354       .  A
C866        H879   1.082       .  S
N867        C868   1.353       .  A
N867        C935   1.424       .  S
C868        H869   1.082       .  S
C870        N871   1.353       .  A
C870        H880   1.081       .  S
N871        C872   1.361       .  A
N871        C946   1.439       .  S
C872        H878   1.080       .  S
C873        N874   1.352       .  A
C873        H875   1.082       .  S
N874        C876   1.357       .  A
N874        C957   1.433       .  S
C876        H877   1.082       .  S
N881        N882   1.333       .  A
N881       Mn910   2.259       .  S
N882        C889   1.362   1_565  A
N883        N885   1.315       .  A
N883        N884   1.321       .  A
N884        C890   1.351       .  A
N885        N886   1.322       .  A
N886        C890   1.352       .  A
N887        N888   1.332       .  A
N887       Mn899   2.254       .  S
N891        N897   1.320       .  A
N891        N892   1.328       .  A
N891       Mn921   2.218       .  S
N892        C900   1.357       .  A
N893        N894   1.328   1_556  A
N893        N895   1.320       .  A
N893       Mn899   2.213   1_556  S
N894        C901   1.358   1_554  A
N895        N896   1.313       .  A
N895       Mn921   2.212       .  S
N896        C901   1.349       .  A
N897        N898   1.314       .  A
N897       Mn899   2.206   1_556  S
N898        C900   1.347       .  A
C900        N984   1.435       .  S
N902        N903   1.313       .  A
N902        N908   1.321       .  A
N902       Mn910   2.207   1_556  S
N903        C911   1.347       .  A
N904        N906   1.321       .  A
N904        N905   1.315       .  A
N904       Mn922   2.219       .  S
N905        C912   1.349       .  A
N906        N907   1.328   1_556  A
N906       Mn910   2.217   1_556  S
N907        C912   1.357   1_554  A
N908        N909   1.328       .  A
N908       Mn922   2.215       .  S
N909        C911   1.357       .  A
C911        N987   1.434       .  S
N913        N914   1.320       .  A
N913        N919   1.313       .  A
N914        C924   1.352       .  A
N915        N916   1.334       .  A
N915       Mn922   2.268       .  S
N917        N918   1.334       .  A
N917       Mn921   2.262       .  S
N918        C925   1.362       .  A
N919        N920   1.319       .  A
N920        C924   1.351       .  A
C924        N980   1.422       .  S
N926        N927   1.333       .  A
N926       Mn955   2.257       .  S
N927        C934   1.361   1_565  A
N928        N930   1.315       .  A
N928        N929   1.320       .  A
N929        C935   1.353       .  A
N930        N931   1.320       .  A
N931        C935   1.350       .  A
N932        N933   1.334       .  A
N932       Mn944   2.263       .  S
N936        N942   1.320       .  A
N936        N937   1.327       .  A
N936       Mn966   2.210       .  S
N937        C945   1.356       .  A
N938        N939   1.329       .  A
N938        N940   1.322       .  A
N938       Mn944   2.229       .  S
N939        C946   1.359       .  A
N940        N941   1.315       .  A
N940       Mn966   2.216       .  S
N941        C946   1.348       .  A
N942        N943   1.314       .  A
N942       Mn944   2.211       .  S
N943        C945   1.348       .  A
C945       N1007   1.435       .  S
N947        N948   1.313       .  A
N947        N953   1.320       .  A
N947       Mn955   2.206       .  S
N948        C956   1.347       .  A
N949        N951   1.321       .  A
N949        N950   1.313       .  A
N949       Mn967   2.209       .  S
N950        C957   1.347       .  A
N951        N952   1.327       .  A
N951       Mn955   2.215       .  S
N952        C957   1.357       .  A
N953        N954   1.328       .  A
N953       Mn967   2.212       .  S
N954        C956   1.357       .  A
C956       N1010   1.434       .  S
N958        N959   1.321       .  A
N958        N964   1.313       .  A
N959        C969   1.353       .  A
N960        N961   1.332       .  A
N960       Mn967   2.254       .  S
N962        N963   1.332       .  A
N962       Mn966   2.262       .  S
N963        C970   1.362       .  A
N964        N965   1.319       .  A
N965        C969   1.351       .  A
C969       N1003   1.425       .  S
C971        C973   1.536       .  S
C971        C975   1.546       .  S
C971        C974   1.547       .  S
C971       C1028   1.505       .  S
C972        C976   1.517       .  S
C972        C978   1.540       .  S
C972        C977   1.541       .  S
C972       C1055   1.515       .  S
C973        C981   1.378       .  A
C973        C976   1.383       .  A
C974        C985   1.391       .  A
C974        C977   1.394       .  A
C975        C989   1.391       .  A
C975        C978   1.392       .  A
C976        C979   1.373       .  A
C977        C983   1.371       .  A
C978        C986   1.370       .  A
C979        N980   1.354       .  A
C979        H992   1.083       .  S
N980        C981   1.354       .  A
C981        H982   1.083       .  S
C983        N984   1.353       .  A
C983        H993   1.082       .  S
N984        C985   1.359       .  A
C985        H991   1.081       .  S
C986        N987   1.352       .  A
C986        H988   1.081       .  S
N987        C989   1.359       .  A
C989        H990   1.081       .  S
C994        C996   1.537       .  S
C994        C998   1.546       .  S
C994        C997   1.546       .  S
C994       C1052   1.504       .  S
C995        C999   1.518       .  S
C995       C1001   1.540       .  S
C995       C1000   1.541       .  S
C995       C1031   1.514       .  S
C996       C1004   1.380       .  A
C996        C999   1.382       .  A
C997       C1008   1.391       .  A
C997       C1000   1.392       .  A
C998       C1012   1.390       .  A
C998       C1001   1.394       .  A
C999       C1002   1.375       .  A
C1000      C1006   1.372       .  A
C1001      C1009   1.370       .  A
C1002      N1003   1.355       .  A
C1002      H1015   1.082       .  S
N1003      C1004   1.355       .  A
C1004      H1005   1.083       .  S
C1006      N1007   1.352       .  A
C1006      H1016   1.082       .  S
N1007      C1008   1.359       .  A
C1008      H1014   1.082       .  S
C1009      N1010   1.354       .  A
C1009      H1011   1.082       .  S
N1010      C1012   1.360       .  A
C1012      H1013   1.082       .  S
C1017      C1018   1.396       .  A
C1017      C1022   1.402       .  A
C1017      H1033   1.083       .  S
C1018      C1019   1.403       .  A
C1018      H1034   1.084       .  S
C1019      C1029   1.396       .  A
C1019      C1020   1.410       .  A
C1020      C1026   1.408       .  A
C1020      C1021   1.403       .  A
C1021      C1023   1.410       .  A
C1021      C1022   1.409       .  A
C1022      C1030   1.394       .  A
C1023      C1032   1.396       .  A
C1023      C1024   1.402       .  A
C1024      C1025   1.396       .  A
C1024      H1035   1.083       .  S
C1025      C1026   1.403       .  A
C1025      H1036   1.083       .  S
C1026      C1027   1.394       .  A
C1027      C1028   1.408       .  A
C1027      H1037   1.081       .  S
C1028      C1029   1.408       .  A
C1029      H1038   1.082       .  S
C1030      C1031   1.405       .  A
C1030      H1039   1.081       .  S
C1031      C1032   1.405       .  A
C1032      H1040   1.082       .  S
C1041      C1042   1.396       .  A
C1041      C1046   1.402       .  A
C1041      H1057   1.083       .  S
C1042      C1043   1.403       .  A
C1042      H1058   1.084       .  S
C1043      C1053   1.396       .  A
C1043      C1044   1.409       .  A
C1044      C1050   1.408       .  A
C1044      C1045   1.402       .  A
C1045      C1047   1.410       .  A
C1045      C1046   1.409       .  A
C1046      C1054   1.395       .  A
C1047      C1056   1.395       .  A
C1047      C1048   1.401       .  A
C1048      C1049   1.395       .  A
C1048      H1059   1.083       .  S
C1049      C1050   1.403       .  A
C1049      H1060   1.084       .  S
C1050      C1051   1.393       .  A
C1051      C1052   1.408       .  A
C1051      H1061   1.082       .  S
C1052      C1053   1.408       .  A
C1053      H1062   1.082       .  S
C1054      C1055   1.405   1_554  A
C1054      H1063   1.082   1_554  S
C1055      C1056   1.404   1_556  A
C1056      H1064   1.082   1_554  S
C1065      C1066   1.395       .  A
C1065      C1070   1.402       .  A
C1065      H1081   1.084       .  S
C1066      C1067   1.403       .  A
C1066      H1082   1.083       .  S
C1067      C1077   1.387       .  A
C1067      C1068   1.404       .  A
C1068      C1074   1.413       .  A
C1068      C1069   1.397       .  A
C1069      C1071   1.403       .  A
C1069      C1070   1.413       .  A
C1070      C1078   1.397       .  A
C1071      C1080   1.382       .  A
C1071      C1072   1.402       .  A
C1072      C1073   1.392       .  A
C1072      H1083   1.084       .  S
C1073      C1074   1.400       .  A
C1073      H1084   1.084       .  S
C1074      C1075   1.393       .  A
C1075      C1076   1.398       .  A
C1075      H1085   1.078       .  S
C1076      C1077   1.408       .  A
C1077      H1086   1.083       .  S
C1078      C1079   1.403       .  A
C1078      H1087   1.080       .  S
C1079      C1080   1.409       .  A
C1080      H1088   1.082       .  S
C1089      C1090   1.393       .  A
C1089      C1094   1.402       .  A
C1089      H1105   1.084       .  S
C1090      C1091   1.401       .  A
C1090      H1106   1.083       .  S
C1091      C1101   1.389       .  A
C1091      C1092   1.408       .  A
C1092      C1098   1.411       .  A
C1092      C1093   1.399       .  A
C1093      C1095   1.407       .  A
C1093      C1094   1.410       .  A
C1094      C1102   1.390       .  A
C1095      C1104   1.392       .  A
C1095      C1096   1.404       .  A
C1096      C1097   1.396       .  A
C1096      H1107   1.084       .  S
C1097      C1098   1.402       .  A
C1097      H1108   1.083       .  S
C1098      C1099   1.396       .  A
C1099      C1100   1.404       .  A
C1099      H1109   1.082       .  S
C1100      C1101   1.403       .  A
C1101      H1110   1.081       .  S
C1102      C1103   1.404       .  A
C1102      H1111   1.081       .  S
C1103      C1104   1.409       .  A
C1104      H1112   1.082       .  S
