geometry optimzed in LAMMPS
_audit_creation_date              2020-11-30 
_audit_creation_method            'lammps2cif' 
_symmetry_space_group_name_H-M    'P1' 
_symmetry_Int_Tables_number       1 
_symmetry_cell_setting            triclinic 
loop_ 
_symmetry_equiv_pos_as_xyz 
  x,y,z 
_cell_length_a                    38.73579413 
_cell_length_b                    39.40303455729588 
_cell_length_c                    28.30957013415417 
_cell_angle_alpha                 89.60764057674486 
_cell_angle_beta                  88.82963545679178 
_cell_angle_gamma                 113.90884141272537 
loop_ 
_atom_site_label 
_atom_site_type_symbol 
_atom_site_fract_x 
_atom_site_fract_y 
_atom_site_fract_z 
_atom_site_charge 
C1          C  0.32997017  0.17998026  0.02055655     0.32100
C2          C  0.31774590  0.18810681  0.42174095     0.32100
C3          C  0.35231893  0.16496379  0.98725261    -0.04100
C4          C  0.28947918  0.16015824  0.00188381    -0.04900
C5          C  0.34121341  0.21962542  0.00017343    -0.04800
C6          C  0.32621080  0.16031844  0.45239379    -0.04100
C7          C  0.27729520  0.18171418  0.44119374    -0.04900
C8          C  0.34261074  0.22501963  0.44537096    -0.04800
C9          C  0.34312377  0.13621215  0.44437283    -0.30200
N10         N  0.34802656  0.12250181  0.48656070     0.16300
C11         C  0.37390708  0.14475024  0.99220564    -0.30200
H12         H  0.38187281  0.13608829  0.02510106     0.18300
C13         C  0.24079928  0.16068109  0.42635685    -0.29200
N14         N  0.23059033  0.12352512  0.98311683     0.15100
C15         C  0.25485229  0.13508271  0.01960741    -0.29100
C16         C  0.37193650  0.25746285  0.43066066    -0.29400
N17         N  0.36081311  0.27961067  0.98145754     0.15600
H18         H  0.38300523  0.26432782  0.39478994     0.18200
C19         C  0.35570756  0.25507852  0.01779407    -0.29400
H20         H  0.36351473  0.26248340  0.05398088     0.18200
H21         H  0.24870280  0.12412299  0.05540552     0.18200
H22         H  0.35356235  0.13101053  0.41061721     0.18300
H23         H  0.23354025  0.14904726  0.39157420     0.18200
C24         C  0.33813804  0.18110939  0.27035774     0.32100
C25         C  0.34034846  0.17532834  0.17149859     0.32100
C26         C  0.35223312  0.15184003  0.25025492    -0.04100
C27         C  0.30100477  0.17110445  0.24416535    -0.04900
C28         C  0.36462846  0.21619440  0.24172792    -0.04800
C29         C  0.35302917  0.14905575  0.20024958    -0.04100
C30         C  0.30250595  0.16839815  0.19494778    -0.04900
C31         C  0.36530589  0.21253488  0.19219949    -0.04800
C32         C  0.37005672  0.12536883  0.18947141    -0.30200
N33         N  0.38040574  0.11399019  0.23015400     0.16300
C34         C  0.36964851  0.12971524  0.26737892    -0.30200
H35         H  0.37443771  0.12563006  0.30410835     0.18300
C36         C  0.26729504  0.16028897  0.17860091    -0.29200
N37         N  0.24402982  0.15731298  0.21624470     0.15100
C38         C  0.26423832  0.16429448  0.25633693    -0.29100
C39         C  0.39096634  0.24479818  0.17291427    -0.29400
N40         N  0.40640783  0.26864915  0.20838324     0.15600
H41         H  0.39704985  0.25047779  0.13555088     0.18200
C42         C  0.39054367  0.25176352  0.25043068    -0.29400
H43         H  0.39715835  0.26459032  0.28465593     0.18200
H44         H  0.25278964  0.16371313  0.29169232     0.18200
H45         H  0.37498641  0.11733924  0.15439492     0.18300
H46         H  0.25945675  0.15691400  0.14193714     0.18200
C47         C  0.07124803  0.43623176  0.36125314     0.44500
N48         N  0.02084667  0.44596213  0.36946720     0.03400
C49         C  0.05908509  0.11099090  0.35705523    -0.04500
H50         H  0.09313039  0.06110710  0.06140675     0.08900
C51         C  0.42350243  0.53526333  0.02984623    -0.04800
Co52       Co  0.05663112  0.01186460  0.41610126     0.74200
N53         N  0.04998701  0.07033011  0.47424322    -0.24000
Co54       Co  0.00465478  0.06494163  0.42887683     0.74100
C55         C  0.43920550  0.57540436  0.03161297     0.44600
N56         N  0.47042586  0.43930936  0.49559953     0.03000
N57         N  0.96405212  0.05224601  0.48132676     0.03100
N58         N  0.10281001  0.08742500  0.36342876    -0.44800
H59         H  0.10629433  0.49758926  0.34012632     0.08900
N60         N  0.06782327  0.04801600  0.47069792     0.03400
N61         N  0.45292059  0.06708890  0.52864233     0.03200
C62         C  0.39841623  0.06802756  0.53941809     0.44800
N63         N  0.47309049  0.43307513  0.45061866    -0.23400
C64         C  0.07483880  0.96279591  0.34896288    -0.04400
N65         N  0.03446362  0.42029548  0.37355087    -0.44600
N66         N  0.43496032  0.08928387  0.52986897    -0.44800
C67         C  0.40199983  0.02471127  0.34715978     0.44500
N68         N  0.06845616  0.06160256  0.37475599     0.03400
N69         N  0.41278810  0.45553536  0.44244197    -0.23500
N70         N  0.04618788  0.47852314  0.35508515    -0.24000
N71         N  0.41219985  0.46578555  0.48625526     0.03000
H72         H  0.37065919  0.42360832  0.39405650     0.08900
H73         H  0.36958742  0.00476029  0.54676485     0.09000
N74         N  0.04331884  0.07646671  0.37451681    -0.24000
N75         N  0.52506979  0.51536682  0.52638755    -0.23600
N76         N  0.44709194  0.50407620  0.36872480     0.03400
C77         C  0.11054206  0.09843162  0.49761154     0.44800
C78         C  0.46522051  0.39717674  0.44401362    -0.04900
N79         N  0.43035311  0.03187179  0.53667610    -0.23600
H80         H  0.39347715  0.51825010  0.03029983     0.09000
N81         N  0.10321521  0.06359473  0.48446840    -0.44800
H82         H  0.45762125  0.38402428  0.41016800     0.08900
C83         C  0.35428177  0.43721770  0.46769738     0.44600
C84         C  0.07938499  0.47515873  0.34891611    -0.04400
Co85       Co  0.46216078  0.46716395  0.40557648     0.73800
N86         N  0.45920859  0.40797442  0.52086611    -0.44600
C87         C  0.09901082  0.11942460  0.35181698     0.44900
N88         N  0.41214498  0.50152025  0.37130489    -0.44600
Co89       Co  0.46633373  0.49010813  0.51424426     0.73900
C90         C  0.39502160  0.02989084  0.54330883    -0.04900
C91         C  0.07478626  0.10271536  0.49189358    -0.04400
N92         N  0.04716683  0.97249532  0.36382336    -0.24000
N93         N  0.96349248  0.96271877  0.06832440    -0.44700
H94         H  0.04657987  0.13087335  0.36147358     0.08900
C95         C  0.37798837  0.43658232  0.42806890    -0.04900
Cl96       Cl  0.48195522  0.02596671  0.45629883    -0.47900
C97         C  0.45513891  0.37989652  0.49089252     0.44700
H98         H  0.10461781  0.97886148  0.35428164     0.08900
N99         N  0.37710030  0.45456798  0.50379331    -0.44600
C100        C  0.07972372  0.43864211  0.24474424     0.44500
N101        N  0.03634566  0.45636153  0.22396016     0.03400
C102        C  0.02151924  0.14645750  0.18307454    -0.04500
H103        H  0.12528671  0.13053415  0.24992183     0.08900
C104        C  0.45773565  0.42305841  0.27408944    -0.04800
Co105      Co  0.03673356  0.05640710  0.12691457     0.74200
N106        N  0.08401829  0.09367198  0.20362713    -0.24000
Co107      Co  0.03238921  0.08354413  0.23701367     0.74100
C108        C  0.44481476  0.44431695  0.30448821     0.44600
N109        N  0.45677517  0.41562761  0.16283463     0.03000
N110        N  0.04300123  0.04892750  0.28274892     0.03100
N111        N  0.03369513  0.13229874  0.10941562    -0.44800
H112        H  0.12501169  0.49707303  0.23548744     0.08900
N113        N  0.08622868  0.08025028  0.16190986     0.03400
N114        N  0.48514170  0.03753362  0.25024365     0.03200
C115        C  0.44870240  0.06552449  0.23542131     0.44800
N116        N  0.47159419  0.41840794  0.12001241    -0.23400
C117        C  0.96449061  0.05815051  0.08564266    -0.04400
N118        N  0.04292731  0.42685171  0.23480334    -0.44600
N119        N  0.48365730  0.07070960  0.24909375    -0.44800
C120        C  0.50489588  0.07960150  0.10547366     0.44500
N121        N  0.02888114  0.10503716  0.13973289     0.03400
N122        N  0.43680917  0.47151131  0.10192889    -0.23500
N123        N  0.06722011  0.48743046  0.22596037    -0.24000
N124        N  0.42510533  0.46822338  0.14594249     0.03000
H125        H  0.40275021  0.46501540  0.03930186     0.08900
H126        H  0.40253407  0.01260737  0.21002722     0.09000
N127        N  0.02268349  0.11315667  0.18309781    -0.24000
N128        N  0.48542696  0.44903540  0.24812546    -0.23600
N129        N  0.51518918  0.52977587  0.07622085     0.03400
C130        C  0.14313298  0.11349240  0.17885482     0.44800
C131        C  0.47353816  0.38567207  0.11025316    -0.04900
N132        N  0.45349611  0.01025275  0.23735279    -0.23600
H133        H  0.43759356  0.39761207  0.26010138     0.09000
N134        N  0.12129524  0.09188653  0.14506236    -0.44800
H135        H  0.48726719  0.37961607  0.07994457     0.08900
C136        C  0.37387318  0.45774410  0.10997298     0.44600
C137        C  0.09546419  0.47893728  0.24061545    -0.04400
Co138      Co  0.49236078  0.47189476  0.08987832     0.73800
N139        N  0.44779296  0.38285679  0.18273681    -0.44600
C140        C  0.03040247  0.16008210  0.13398963     0.44900
N141        N  0.49396782  0.54749870  0.08929753    -0.44600
Co142      Co  0.45548642  0.46123757  0.19696030     0.73900
C143        C  0.42939272  0.02602382  0.22652845    -0.04900
C144        C  0.11865603  0.11526811  0.21738634    -0.04400
N145        N  0.98297561  0.03691425  0.09874977    -0.24000
N146        N  0.07828175  0.05171197  0.27739340    -0.44700
H147        H  0.02179051  0.16162371  0.21481360     0.08900
C148        C  0.40540889  0.46531628  0.07673413    -0.04900
Cl149      Cl  0.50995913  0.99699578  0.17573559    -0.47900
C150        C  0.45782712  0.36249762  0.15246159     0.44700
H151        H  0.97789485  0.08646191  0.07311671     0.08900
N152        N  0.38877988  0.45965141  0.15226360    -0.44600
C153        C  0.17491530  0.32090238  0.35076013     0.32100
C154        C  0.16222535  0.31272669  0.44868310     0.32100
C155        C  0.14371775  0.33202005  0.37154388    -0.04100
C156        C  0.16352946  0.28121254  0.37192351    -0.04900
C157        C  0.20827599  0.34394437  0.38215308    -0.04800
C158        C  0.13702528  0.32759599  0.42095870    -0.04100
C159        C  0.15721041  0.27731578  0.42120192    -0.04900
C160        C  0.20151655  0.33954480  0.43125542    -0.04800
C161        C  0.11584893  0.34743645  0.43305811    -0.30200
N162        N  0.11019884  0.36423914  0.39359479     0.16300
C163        C  0.12760057  0.35560855  0.35636552    -0.30200
H164        H  0.12972758  0.36705909  0.32108612     0.18300
C165        C  0.14352307  0.23988588  0.43180818    -0.29200
N166        N  0.14185852  0.22073110  0.39145071     0.15100
C167        C  0.15384254  0.24566320  0.35462800    -0.29100
C168        C  0.23243513  0.36488763  0.45293346    -0.29400
N169        N  0.25806616  0.38442131  0.41901244     0.15600
H170        H  0.23536802  0.36951286  0.49042344     0.18200
C171        C  0.24362449  0.37214881  0.37583368    -0.29400
H172        H  0.25772632  0.38329693  0.34227979     0.18200
H173        H  0.15246249  0.23831563  0.31773055     0.18200
H174        H  0.10733439  0.35143766  0.46851406     0.18300
H175        H  0.13296503  0.22720758  0.46613794     0.18200
C176        C  0.17548642  0.33817557  0.10094678     0.32100
C177        C  0.18233952  0.33153813  0.19827689     0.32100
C178        C  0.15538358  0.35679956  0.13355365    -0.04100
C179        C  0.15926292  0.29837245  0.12187925    -0.04900
C180        C  0.21586234  0.35412555  0.12010026    -0.04800
C181        C  0.15974363  0.35313419  0.18227254    -0.04100
C182        C  0.16283497  0.29512584  0.17180980    -0.04900
C183        C  0.21914003  0.35082331  0.16932104    -0.04800
C184        C  0.13896877  0.36818648  0.20631248    -0.30200
N185        N  0.12164790  0.38163043  0.17512795     0.16300
C186        C  0.13075039  0.37441202  0.13040444    -0.30200
H187        H  0.12004244  0.38109758  0.09827785     0.18300
C188        C  0.13091890  0.26565501  0.18733426    -0.29200
N189        N  0.10858895  0.25101706  0.15051204     0.15100
C190        C  0.12517996  0.27035915  0.11078166    -0.29100
C191        C  0.25451502  0.37564954  0.18060997    -0.29400
N192        N  0.27313523  0.39329553  0.14056224     0.15600
H193        H  0.26510540  0.38236233  0.21597667     0.18200
C194        C  0.24980615  0.38088462  0.10348875    -0.29400
H195        H  0.25580327  0.39261930  0.06805719     0.18200
H196        H  0.11096777  0.26805733  0.07766160     0.18200
H197        H  0.13563670  0.36809396  0.24430611     0.18300
H198        H  0.12213816  0.25864228  0.22398031     0.18200
C199        C  0.18113670  0.32524704  0.29661542    -0.11200
C200        C  0.18383266  0.32819474  0.25260260    -0.12800
C201        C  0.15814408  0.30971838  0.50291895    -0.11200
C202        C  0.15890586  0.30907344  0.54688051    -0.12800
C203        C  0.07132269  0.22285557  0.15588195    -0.14400
C204        C  0.05614584  0.19834802  0.12177516    -0.29500
H205        H  0.05899771  0.21767358  0.19129308     0.14700
H206        H  0.06938483  0.20338809  0.08674768     0.15200
C207        C  0.33358957  0.43403736  0.10274546    -0.14400
C208        C  0.31018828  0.42271825  0.14096611    -0.29500
H209        H  0.32429705  0.42315513  0.06797541     0.14700
H210        H  0.32085272  0.43375471  0.17534669     0.15200
C211        C  0.09733520  0.39968858  0.18889069    -0.14400
C212        C  0.10228311  0.41799600  0.23021012    -0.29500
H213        H  0.07543242  0.39907672  0.16531063     0.14700
H214        H  0.12621864  0.42136562  0.25180584     0.15200
C215        C  0.12798025  0.15801582  0.35924484    -0.14400
C216        C  0.11983683  0.18113849  0.38843059    -0.29500
H217        H  0.15436210  0.16802062  0.33890879     0.14700
H218        H  0.09478050  0.16948476  0.41127818     0.15200
C219        C  0.31279454  0.41845039  0.46795331    -0.14400
C220        C  0.29548647  0.41202861  0.42586986    -0.29500
H221        H  0.29766967  0.40692754  0.50088409     0.14700
H222        H  0.31170047  0.42547981  0.39417465     0.15200
C223        C  0.09688386  0.41658773  0.36390316    -0.14400
C224        C  0.08802517  0.38620037  0.39219632    -0.29500
H225        H  0.12295221  0.42701662  0.34292906     0.14700
H226        H  0.06348195  0.37808936  0.41589139     0.15200
C227        C  0.40736121  0.44290046  0.29662346    -0.16400
C228        C  0.38262375  0.45337232  0.28864900     0.07600
C229        C  0.36790860  0.97645679  0.29249230     0.09500
C230        C  0.37634622  0.00659324  0.31015672    -0.17300
C231        C  0.49213909  0.10616578  0.12487805    -0.16400
C232        C  0.46750289  0.11723309  0.12737293     0.07600
C233        C  0.44641707  0.61435215  0.10259453     0.09500
C234        C  0.43192784  0.59634519  0.06882459    -0.17300
C235        C  0.43268778  0.09430914  0.23666853    -0.14400
C236        C  0.39540824  0.08587080  0.23247632    -0.29500
H237        H  0.45194291  0.12306618  0.24130041     0.14700
H238        H  0.37603515  0.05725718  0.22723067     0.15200
C239        C  0.43095246  0.30714311  0.20228764    -0.14400
C240        C  0.44548014  0.32244289  0.15958510    -0.29500
H241        H  0.43417600  0.32498224  0.23249789     0.14700
H242        H  0.44456950  0.30571615  0.12904244     0.15200
C243        C  0.20410074  0.14621772  0.21507761    -0.14400
C244        C  0.18420422  0.12851411  0.17782527    -0.29500
H245        H  0.18983348  0.15014676  0.24661640     0.14700
H246        H  0.19784506  0.12293559  0.14686300     0.15200
C247        C  0.36828099  0.08057054  0.53002691    -0.14400
C248        C  0.37194265  0.10308746  0.49273581    -0.29500
H249        H  0.34414891  0.07269573  0.55428727     0.14700
H250        H  0.42540776  0.11530520  0.96076185     0.15200
C251        C  0.41684045  0.31568351  0.46467734    -0.14400
C252        C  0.42741975  0.34078096  0.49969676    -0.29500
H253        H  0.39556964  0.33409204  0.95152587     0.14700
H254        H  0.41383192  0.33337751  0.53430034     0.15200
C255        C  0.17635266  0.12684974  0.46339876    -0.14400
C256        C  0.14958433  0.12854402  0.49396719    -0.29500
H257        H  0.18418244  0.08169993  0.94812269     0.14700
H258        H  0.15663875  0.15233807  0.51663026     0.15200
C259        C  0.32538979  0.18604140  0.36774086    -0.11200
C260        C  0.33298674  0.18416466  0.32468335    -0.12800
C261        C  0.33920166  0.17444795  0.11717767    -0.11200
C262        C  0.33532072  0.17638012  0.07379630    -0.13600
C263        C  0.30932279  0.19220097  0.52005402     0.32100
C264        C  0.32144056  0.18626332  0.92326832     0.32100
C265        C  0.32156949  0.16194868  0.50157090    -0.04100
C266        C  0.27358203  0.18453254  0.49099644    -0.04900
C267        C  0.33853671  0.22725297  0.49463394    -0.04800
C268        C  0.34759230  0.16792943  0.93850996    -0.04100
C269        C  0.28547862  0.16355099  0.95285462    -0.04900
C270        C  0.33720986  0.22287607  0.95109708    -0.04800
C271        C  0.36552165  0.14887878  0.91559823    -0.30200
N272        N  0.38138351  0.13494509  0.94852047     0.16300
C273        C  0.33493686  0.13788740  0.52162077    -0.30200
H274        H  0.33799462  0.13429828  0.55885958     0.18300
C275        C  0.24909475  0.14066915  0.94265943    -0.29200
N276        N  0.21567645  0.15302786  0.46367237     0.15100
C277        C  0.23562112  0.16692344  0.50308802    -0.29100
C278        C  0.34998401  0.26029089  0.94076902    -0.29400
N279        N  0.38571110  0.27950513  0.46858065     0.15600
H280        H  0.35207175  0.27268501  0.90598995     0.18200
C281        C  0.36555097  0.26132734  0.50790470    -0.29400
H282        H  0.37067822  0.27145177  0.54360885     0.18200
H283        H  0.22400757  0.16064773  0.53877921     0.18200
H284        H  0.36617362  0.14459463  0.87791990     0.18300
H285        H  0.23746976  0.13506370  0.90767587     0.18200
C286        C  0.31152776  0.18863197  0.77119389     0.32100
C287        C  0.30491495  0.19132468  0.67296917     0.32100
C288        C  0.33418236  0.17158429  0.74073038    -0.04100
C289        C  0.27144009  0.16889963  0.75161764    -0.04900
C290        C  0.32352979  0.22734252  0.74801874    -0.04800
C291        C  0.33045586  0.17305314  0.69154834    -0.04100
C292        C  0.26789156  0.17013359  0.70214713    -0.04900
C293        C  0.32033536  0.22877365  0.69865699    -0.04800
C294        C  0.35118205  0.15564158  0.67088669    -0.30200
N295        N  0.36752863  0.14336291  0.70517526     0.16300
C296        C  0.35774318  0.15328614  0.74790573    -0.30200
H297        H  0.36646999  0.14698383  0.78173931     0.18300
C298        C  0.22998998  0.15073582  0.69328122    -0.29200
N299        N  0.21083707  0.13838751  0.73516189     0.15100
C300        C  0.23586124  0.14891042  0.77071004    -0.29100
C301        C  0.32819347  0.26512578  0.68672478    -0.29400
N302        N  0.33627403  0.28567604  0.72661133     0.15600
H303        H  0.32785599  0.27590738  0.65153105     0.18200
C304        C  0.33323821  0.26278852  0.76421656    -0.29400
H305        H  0.33709264  0.27088067  0.80079895     0.18200
H306        H  0.22885582  0.14124383  0.80757875     0.18200
H307        H  0.35450072  0.15253596  0.63348539     0.18300
H308        H  0.21745884  0.14471077  0.65883843     0.18200
C309        C  0.06536161  0.43873450  0.84604284     0.44500
N310        N  0.02406842  0.46283263  0.84529120     0.03400
C311        C  0.05280054  0.11029395  0.99258112    -0.04500
H312        H  0.07139453  0.12860614  0.48985138     0.08900
C313        C  0.54626425  0.49800560  0.51005914    -0.04800
Co314      Co  0.07434549  0.03592037  0.90510644     0.74200
N315        N  0.07029645  0.02207750  0.00608667    -0.24000
Co316      Co  0.01633952  0.02460027  0.00130189     0.74100
C317        C  0.58431390  0.52470526  0.50559575     0.44600
N318        N  0.43584892  0.43520417  0.00086211     0.03000
N319        N  0.98241184  0.96927150  0.02774719     0.03100
N320        N  0.09544757  0.11625726  0.93419510    -0.44800
H321        H  0.10918952  0.49041852  0.87993498     0.08900
N322        N  0.08870586  0.01867131  0.96752605     0.03400
N323        N  0.45509724  0.04560246  0.91558073     0.03200
C324        C  0.40939075  0.06110554  0.89911368     0.44800
N325        N  0.46173629  0.42203998  0.99243821    -0.23400
C326        C  0.05448705  0.08587769  0.84481972    -0.04400
N327        N  0.02931023  0.43227932  0.83497524    -0.44600
N328        N  0.44724377  0.07366730  0.90143573    -0.44800
C329        C  0.51972686  0.93331098  0.81332153     0.44500
N330        N  0.07221691  0.08114272  0.94122468     0.03400
N331        N  0.43730007  0.42294262  0.89758542    -0.23500
N332        N  0.05448066  0.48854162  0.86313828    -0.24000
N333        N  0.41986978  0.44481992  0.90734837     0.03000
H334        H  0.41563889  0.36803588  0.86745505     0.08900
H335        H  0.36535784  0.00506875  0.92603726     0.09000
N336        N  0.04742097  0.07691365  0.97545099    -0.24000
N337        N  0.45000869  0.52539104  0.00927163    -0.23600
N338        N  0.52085236  0.44454150  0.86859450     0.03400
C339        C  0.13387864  0.04734351  0.01466299     0.44800
C340        C  0.44964640  0.38725204  0.00879658    -0.04900
N341        N  0.42424422  0.01513087  0.92414184    -0.23600
H342        H  0.53630193  0.47052494  0.49616578     0.09000
N343        N  0.12539309  0.03049966  0.97302281    -0.44800
H344        H  0.46112936  0.36791172  0.99653203     0.08900
C345        C  0.37735192  0.40037208  0.87094878     0.44600
C346        C  0.08207822  0.47628141  0.86394434    -0.04400
Co347      Co  0.49021645  0.43296191  0.92988761     0.73800
N348        N  0.40455859  0.40805084  0.01870582    -0.44600
C349        C  0.08441527  0.13628042  0.96450491     0.44900
N350        N  0.51216378  0.42300225  0.83166471    -0.44600
Co351      Co  0.43514971  0.48200116  0.96008416     0.73900
C352        C  0.39401041  0.02228893  0.91455786    -0.04900
C353        C  0.09744025  0.04307502  0.03554732    -0.04400
N354        N  0.05445864  0.05171257  0.84583130    -0.24000
N355        N  0.96269069  0.07479174  0.51486249    -0.44700
H356        H  0.03715590  0.11546872  0.02150333     0.08900
C357        C  0.41213332  0.39338983  0.87462422    -0.04900
Cl358      Cl  0.49138506  0.98876287  0.94959411    -0.47900
C359        C  0.41152987  0.37749152  0.02620194     0.44700
H360        H  0.07703227  0.11109655  0.85546590     0.08900
N361        N  0.38554520  0.43313716  0.89121899    -0.44600
C362        C  0.05697013  0.40858824  0.73168413     0.44500
N363        N  0.01194393  0.42543733  0.71487710     0.03400
C364        C  0.03788040  0.10094545  0.62411434    -0.04500
H365        H  0.06331629  0.11685373  0.74436713     0.08900
C366        C  0.41147992  0.50977800  0.77568705    -0.04800
Co367      Co  0.04719467  0.00336239  0.66786822     0.74200
N368        N  0.04212981  0.05791509  0.73271789    -0.24000
Co369      Co  0.99084559  0.04934639  0.69859705     0.74100
C370        C  0.43880202  0.53142376  0.80995857     0.44600
N371        N  0.41691760  0.43459966  0.71500551     0.03000
N372        N  0.95292140  0.03289965  0.75540699     0.03100
N373        N  0.08242835  0.07872460  0.61350392    -0.44800
H374        H  0.09954782  0.46828983  0.73278512     0.08900
N375        N  0.06070888  0.03651797  0.72557123     0.03400
N376        N  0.45316942  0.05863953  0.65953890     0.03200
C377        C  0.40899643  0.07832806  0.65114845     0.44800
N378        N  0.43983670  0.41832085  0.70485800    -0.23400
C379        C  0.04016230  0.98176934  0.56479562    -0.04400
N380        N  0.02056250  0.39622790  0.71935076    -0.44600
N381        N  0.44587240  0.08886008  0.66039399    -0.44800
C382        C  0.55441345  0.93258533  0.57038863     0.44500
N383        N  0.05043842  0.05216366  0.63051124     0.03400
N384        N  0.42864147  0.42983721  0.60862051    -0.23500
N385        N  0.04140594  0.45695977  0.72252837    -0.24000
N386        N  0.41100608  0.45185522  0.61770186     0.03000
H387        H  0.40467884  0.37180909  0.59183491     0.08900
H388        H  0.36416377  0.01935796  0.64824401     0.09000
N389        N  0.02470519  0.06560523  0.63891772    -0.24000
N390        N  0.43261802  0.51519971  0.73646377    -0.23600
N391        N  0.51842859  0.45011757  0.59407510     0.03400
C392        C  0.10402391  0.08802601  0.74808330     0.44800
C393        C  0.42947436  0.38692444  0.72989795    -0.04900
N394        N  0.42259411  0.02832499  0.65101488    -0.23600
H395        H  0.38581961  0.48514984  0.78245793     0.09000
N396        N  0.09690157  0.05310824  0.73550811    -0.44800
H397        H  0.44009761  0.36578498  0.72373416     0.08900
C398        C  0.36695819  0.40359345  0.58853055     0.44600
C399        C  0.07032963  0.44869531  0.73542707    -0.04400
Co400      Co  0.47672194  0.43386218  0.64813704     0.73800
N401        N  0.38907011  0.41386515  0.74443657    -0.44600
C402        C  0.07670948  0.11047031  0.60906916     0.44900
N403        N  0.52666775  0.42496210  0.57055585    -0.44600
Co404      Co  0.42202679  0.48306078  0.67762936     0.73900
C405        C  0.39359360  0.03833215  0.64528898    -0.04900
C406        C  0.06801299  0.09162269  0.74468245    -0.04400
N407        N  0.03262223  0.97002406  0.60937663    -0.24000
N408        N  0.94601366  0.05930416  0.77636098    -0.44700
H409        H  0.02607773  0.12017766  0.63578366     0.08900
C410        C  0.40228910  0.39817606  0.59110063    -0.04900
Cl411      Cl  0.48240445  0.99188194  0.68061466    -0.47900
C412        C  0.39557334  0.38348084  0.75592538     0.44700
H413        H  0.05727929  0.01039161  0.55512024     0.08900
N414        N  0.37544189  0.43772379  0.60500709    -0.44600
C415        C  0.17470146  0.32445298  0.84988921     0.32100
C416        C  0.17344663  0.33429253  0.94797512     0.32100
C417        C  0.15540957  0.34989164  0.86805879    -0.04100
C418        C  0.15417745  0.28959350  0.88084637    -0.04900
C419        C  0.21341264  0.34111769  0.87404155    -0.04800
C420        C  0.15515081  0.35490379  0.91744338    -0.04100
C421        C  0.15339485  0.29447687  0.93002822    -0.04900
C422        C  0.21253522  0.34615134  0.92324623    -0.04800
C423        C  0.13694806  0.37797095  0.92597963    -0.30200
N424        N  0.12542272  0.38669062  0.88430525     0.16300
C425        C  0.13654660  0.36985389  0.84878044    -0.30200
H426        H  0.13240919  0.37302747  0.81171284     0.18300
C427        C  0.13738448  0.25971696  0.95059689    -0.29200
N428        N  0.12864753  0.23425787  0.91570703     0.15100
C429        C  0.13898432  0.25212991  0.87328035    -0.29100
C430        C  0.24911000  0.35871724  0.93792417    -0.29400
N431        N  0.27219720  0.36105719  0.90010738     0.15600
H432        H  0.25838562  0.36564307  0.97377499     0.18200
C433        C  0.25084665  0.35048918  0.86085028    -0.29400
H434        H  0.26170226  0.35015985  0.82540367     0.18200
H435        H  0.13705191  0.23873308  0.83957754     0.18200
H436        H  0.13255350  0.38793492  0.96015481     0.18300
H437        H  0.13453059  0.25349755  0.98813119     0.18200
C438        C  0.16272861  0.30888810  0.60086432     0.32100
C439        C  0.17098604  0.30837440  0.69875680     0.32100
C440        C  0.14137932  0.32761599  0.63123266    -0.04100
C441        C  0.14970275  0.27034091  0.62524890    -0.04900
C442        C  0.20349884  0.32756073  0.61904252    -0.04800
C443        C  0.14625853  0.32707768  0.68008684    -0.04100
C444        C  0.15326640  0.26971276  0.67475876    -0.04900
C445        C  0.20755423  0.32775863  0.66836723    -0.04800
C446        C  0.12470222  0.34292055  0.70177506    -0.30200
N447        N  0.10647334  0.35378005  0.66856701     0.16300
C448        C  0.11598019  0.34422783  0.62527379    -0.30200
H449        H  0.10500996  0.34868671  0.59203633     0.18300
C450        C  0.13866451  0.23248379  0.68814590    -0.29200
N451        N  0.12765352  0.21105927  0.64887871     0.15100
C452        C  0.13432876  0.23400366  0.61050667    -0.29100
C453        C  0.24573596  0.34492571  0.67648082    -0.29400
N454        N  0.26499527  0.35412634  0.63427704     0.15600
H455        H  0.25867291  0.35047119  0.71071839     0.18200
C456        C  0.23955938  0.34357867  0.59904163    -0.29400
H457        H  0.24676484  0.34801522  0.56180847     0.18200
H458        H  0.12677368  0.22493075  0.57471930     0.18200
H459        H  0.12131879  0.34482446  0.73945095     0.18300
H460        H  0.13550832  0.22173229  0.72399798     0.18200
C461        C  0.17510876  0.31739679  0.79629459    -0.11200
C462        C  0.17438469  0.31138393  0.75297204    -0.12800
C463        C  0.17297935  0.33848424  0.00232658    -0.11200
C464        C  0.17324367  0.33988335  0.04647182    -0.12800
C465        C  0.10539647  0.17131635  0.64924389    -0.14400
C466        C  0.10664290  0.14885617  0.61367399    -0.29500
H467        H  0.08540590  0.15952933  0.67846456     0.14700
H468        H  0.12815877  0.15972495  0.58600932     0.15200
C469        C  0.32771666  0.37463625  0.59422273    -0.14400
C470        C  0.30484690  0.37740719  0.62947957    -0.29500
H471        H  0.31738265  0.35213307  0.56928394     0.14700
H472        H  0.31690101  0.39839545  0.65615146     0.15200
C473        C  0.08016015  0.37069286  0.67886622    -0.14400
C474        C  0.08248047  0.39012166  0.71897973    -0.29500
H475        H  0.05869341  0.36827092  0.65346617     0.14700
H476        H  0.10614617  0.39556980  0.74192694     0.15200
C477        C  0.09690781  0.17666495  0.96075438    -0.14400
C478        C  0.11518021  0.19481340  0.92138335    -0.29500
H479        H  0.09002767  0.19118099  0.98940852     0.14700
H480        H  0.11940825  0.17925848  0.89188782     0.15200
C481        C  0.33705747  0.37356374  0.87060935    -0.14400
C482        C  0.31276085  0.37784637  0.90270593    -0.29500
H483        H  0.32677497  0.35344409  0.84283608     0.14700
H484        H  0.32425717  0.39635098  0.93211422     0.15200
C485        C  0.08132607  0.41009611  0.84925463    -0.14400
C486        C  0.10890805  0.41351009  0.87976934    -0.29500
H487        H  0.06960387  0.38554699  0.82770951     0.14700
H488        H  0.11785342  0.43637327  0.90430176     0.15200
C489        C  0.44991159  0.50504757  0.83148241    -0.16400
C490        C  0.46317834  0.48400776  0.81928662     0.07600
C491        C  0.46817494  0.95336369  0.80187636     0.09500
C492        C  0.49217868  0.94293381  0.79257411    -0.17300
C493        C  0.56898927  0.93672183  0.52264580    -0.16400
C494        C  0.58534033  0.96106290  0.49410734     0.07600
C495        C  0.62109492  0.49001144  0.47662931     0.09500
C496        C  0.61377388  0.51659320  0.48329433    -0.17300
C497        C  0.38614097  0.10024622  0.66054121    -0.14400
C498        C  0.39150208  0.12352590  0.69724323    -0.29500
H499        H  0.36199348  0.09469763  0.63836982     0.14700
H500        H  0.41313876  0.12623949  0.72255524     0.15200
C501        C  0.34956276  0.32556208  0.72632983    -0.14400
C502        C  0.36585054  0.34612943  0.76388430    -0.29500
H503        H  0.35218874  0.33964758  0.69237796     0.14700
H504        H  0.36600297  0.33284732  0.79741383     0.15200
C505        C  0.17308777  0.11022170  0.74009382    -0.14400
C506        C  0.14252324  0.11825734  0.74474844    -0.29500
H507        H  0.16965513  0.08145633  0.74036810     0.14700
H508        H  0.14586886  0.14698017  0.74502196     0.15200
C509        C  0.38956099  0.08537026  0.90673445    -0.14400
C510        C  0.40147614  0.11212487  0.93912679    -0.29500
H511        H  0.36350190  0.07957033  0.88834275     0.14700
H512        H  0.39475848  0.10812610  0.46691562     0.15200
C513        C  0.38034794  0.31947116  0.98324500    -0.14400
C514        C  0.38266528  0.33897145  0.02298165    -0.29500
H515        H  0.43099166  0.32350750  0.43036258     0.14700
H516        H  0.36649659  0.32554577  0.05463240     0.15200
C517        C  0.19384057  0.09333666  0.98254289    -0.14400
C518        C  0.17075242  0.07935931  0.02077822    -0.29500
H519        H  0.16825626  0.10469866  0.43782117     0.14700
H520        H  0.17829176  0.09174230  0.05523410     0.15200
C521        C  0.31732788  0.18803342  0.86928762    -0.11200
C522        C  0.31477024  0.18802968  0.82540599    -0.12800
C523        C  0.30352826  0.19279431  0.61852630    -0.11200
C524        C  0.30543043  0.19329767  0.57440592    -0.13600
C525        C  0.31503021  0.67274737  0.02002626     0.32100
C526        C  0.33240793  0.68517947  0.42124970     0.32100
C527        C  0.33938534  0.65865131  0.98855382    -0.04100
C528        C  0.27594009  0.65281466  0.99847968    -0.04900
C529        C  0.32628479  0.71261473  0.00054017    -0.04800
C530        C  0.34225455  0.65788000  0.45152050    -0.04100
C531        C  0.29234081  0.67684090  0.43942460    -0.04900
C532        C  0.35521388  0.72254002  0.44585992    -0.04800
C533        C  0.36602334  0.64017444  0.44409144    -0.30200
N534        N  0.37367597  0.62878349  0.48637666     0.16300
C535        C  0.35386037  0.63212973  0.99455603    -0.30200
H536        H  0.35623924  0.61957454  0.02778305     0.18300
C537        C  0.25757504  0.66162945  0.41963108    -0.29200
N538        N  0.22005501  0.61278273  0.97547877     0.15100
C539        C  0.24202989  0.62541031  0.01371494    -0.29100
C540        C  0.38168603  0.75725328  0.43255840    -0.29400
N541        N  0.34517472  0.77283094  0.98391017     0.15600
H542        H  0.39264100  0.76599977  0.39698880     0.18200
C543        C  0.33881399  0.74753283  0.01958429    -0.29400
H544        H  0.34461010  0.75413945  0.05641034     0.18200
H545        H  0.23520377  0.61350479  0.04901775     0.18200
H546        H  0.37929668  0.63840514  0.41071206     0.18300
H547        H  0.25224791  0.65532742  0.38284243     0.18200
C548        C  0.32907361  0.67159331  0.26956396     0.32100
C549        C  0.32281771  0.66652664  0.17132691     0.32100
C550        C  0.34302337  0.64374072  0.24498938    -0.04100
C551        C  0.28867412  0.66053673  0.24962983    -0.04900
C552        C  0.35153121  0.70693453  0.24016663    -0.04800
C553        C  0.33920141  0.64103686  0.19541468    -0.04100
C554        C  0.28602422  0.65792368  0.20020826    -0.04900
C555        C  0.34837348  0.70424094  0.19091788    -0.04800
C556        C  0.35841209  0.62027548  0.17954449    -0.30200
N557        N  0.37456561  0.61068347  0.21668312     0.16300
C558        C  0.36576192  0.62513967  0.25667789    -0.30200
H559        H  0.37547067  0.62270354  0.29159927     0.18300
C560        C  0.24914520  0.65011567  0.18927523    -0.29200
N561        N  0.22877768  0.64814614  0.22965769     0.15100
C562        C  0.25253614  0.65448191  0.26677888    -0.29100
C563        C  0.37192865  0.73783155  0.17155716    -0.29400
N564        N  0.38928397  0.76077343  0.20734526     0.15600
H565        H  0.37575119  0.74492888  0.13429778     0.18200
C566        C  0.37693065  0.74233336  0.24920325    -0.29400
H567        H  0.38593351  0.75390650  0.28366736     0.18200
H568        H  0.24403204  0.65396101  0.30336346     0.18200
H569        H  0.36171294  0.61383434  0.14305490     0.18300
H570        H  0.23776641  0.64588834  0.15412135     0.18200
C571        C  0.05567075  0.91526375  0.47993907     0.44500
N572        N  0.01554293  0.93465330  0.45163250     0.03400
C573        C  0.01273924  0.61911677  0.38739544    -0.04500
H574        H  0.08600003  0.54588849  0.06153232     0.08900
C575        C  0.41133788  0.02605277  0.03602697    -0.04800
Co576      Co  0.03222481  0.52527734  0.35352366     0.74200
N577        N  0.07362014  0.57353009  0.42856290    -0.24000
Co578      Co  0.02016393  0.56473033  0.45566462     0.74100
C579        C  0.42738524  0.06622449  0.03744293     0.44600
N580        N  0.45910940  0.94049999  0.50566926     0.03000
N581        N  0.03176706  0.54373952  0.51606853     0.03100
N582        N  0.03425644  0.60108317  0.32255295    -0.44800
H583        H  0.10312824  0.97323564  0.47368241     0.08900
N584        N  0.07925689  0.55665138  0.39100780     0.03400
N585        N  0.48148164  0.57216556  0.52015754     0.03200
C586        C  0.42932130  0.57720417  0.53553335     0.44800
N587        N  0.46742278  0.93642764  0.46156515    -0.23400
C588        C  0.95844499  0.51169991  0.30889801    -0.04400
N589        N  0.02002642  0.90449560  0.46488889    -0.44600
N590        N  0.46557119  0.59619749  0.52201921    -0.44800
C591        C  0.40883658  0.52821413  0.34499548     0.44500
N592        N  0.02103066  0.57365941  0.35417909     0.03400
N593        N  0.40354624  0.95143974  0.44307093    -0.23500
N594        N  0.04665824  0.96514773  0.45677461    -0.24000
N595        N  0.39787267  0.96077496  0.48592457     0.03000
H596        H  0.36696676  0.91794296  0.38998243     0.08900
H597        H  0.39765644  0.51484030  0.54672177     0.09000
N598        N  0.01000242  0.58450168  0.39331693    -0.24000
N599        N  0.50050083  0.01717703  0.55082582    -0.23600
N600        N  0.44210213  0.00393414  0.37378466     0.03400
C601        C  0.13419056  0.59481876  0.40995984     0.44800
C602        C  0.46374884  0.90159902  0.45436669    -0.04900
N603        N  0.45765077  0.53791716  0.53128971    -0.23600
H604        H  0.38134845  0.00887763  0.03606213     0.09000
N605        N  0.11540149  0.56896288  0.37798823    -0.44800
H606        H  0.46094513  0.88955349  0.41971798     0.08900
C607        C  0.34296973  0.92903084  0.46017151     0.44600
C608        C  0.07324793  0.95559392  0.47487569    -0.04400
Co609      Co  0.45720628  0.96893918  0.41397991     0.73800
N610        N  0.44876278  0.90857000  0.52938279    -0.44600
C611        C  0.03148604  0.63137718  0.34141949     0.44900
N612        N  0.40646691  0.99914059  0.37421485    -0.44600
Co613      Co  0.44662496  0.98786006  0.52316110     0.73900
C614        C  0.42395597  0.53873765  0.54136273    -0.04900
C615        C  0.10666702  0.59845122  0.44267530    -0.04400
N616        N  0.98028516  0.49461923  0.32172788    -0.24000
N617        N  0.00536821  0.45021936  0.04020019    -0.44700
H618        H  0.01366499  0.63699198  0.41663449     0.08900
C619        C  0.37065987  0.93046566  0.42433198    -0.04900
Cl620      Cl  0.49616426  0.52509300  0.44333314    -0.47900
C621        C  0.45036153  0.88236217  0.49953471     0.44700
H622        H  0.96756528  0.54101591  0.31093904     0.08900
N623        N  0.36154459  0.94733864  0.49841461    -0.44600
C624        C  0.06669291  0.95964985  0.12415112     0.44500
N625        N  0.01786222  0.97358846  0.12978407     0.03400
C626        C  0.07588676  0.62588869  0.10970199    -0.04500
H627        H  0.09284187  0.65027227  0.24589492     0.08900
C628        C  0.45902326  0.92068044  0.28619143    -0.04800
Co629      Co  0.07688362  0.53249585  0.18092595     0.74200
N630        N  0.06725440  0.59123522  0.23325890    -0.24000
Co631      Co  0.02265083  0.58261681  0.18394555     0.74100
C632        C  0.44514191  0.94171582  0.31584801     0.44600
N633        N  0.45021706  0.91171913  0.17621927     0.03000
N634        N  0.97844717  0.57129223  0.23317137     0.03100
N635        N  0.12245103  0.60736489  0.12353643    -0.44800
H636        H  0.10628795  0.02105979  0.11974929     0.08900
N637        N  0.08247888  0.56682456  0.23608033     0.03400
N638        N  0.48566920  0.53979677  0.23769890     0.03200
C639        C  0.44636994  0.56552173  0.22735858     0.44800
N640        N  0.46300601  0.91499092  0.13231188    -0.23400
C641        C  0.09957956  0.48944894  0.10583237    -0.04400
N642        N  0.02903989  0.94569861  0.13163472    -0.44600
N643        N  0.48207601  0.57202112  0.23990699    -0.44800
C644        C  0.51672122  0.58329307  0.09550768     0.44500
N645        N  0.08888611  0.58063221  0.13600923     0.03400
N646        N  0.42749914  0.96751954  0.11874996    -0.23500
N647        N  0.04565176  0.00605456  0.12061812    -0.24000
N648        N  0.41664235  0.96298188  0.16320304     0.03000
H649        H  0.39270890  0.95813271  0.05706597     0.08900
H650        H  0.40091852  0.51147765  0.20318494     0.09000
N651        N  0.06224067  0.59294206  0.13149077    -0.24000
N652        N  0.48533266  0.94694259  0.25916145    -0.23600
N653        N  0.50414686  0.02607959  0.08837046     0.03400
C654        C  0.12494272  0.61489473  0.26811375     0.44800
C655        C  0.46194460  0.88171739  0.11933433    -0.04900
N656        N  0.45475416  0.51202290  0.22417123    -0.23600
H657        H  0.44017505  0.89413977  0.27346731     0.09000
N658        N  0.11495111  0.57912249  0.25778540    -0.44800
H659        H  0.47409157  0.87575517  0.08757911     0.08900
C660        C  0.36432908  0.95039154  0.12849564     0.44600
C661        C  0.07783974  0.99986527  0.11893025    -0.04400
Co662      Co  0.48253184  0.96867156  0.10280661     0.73800
N663        N  0.43910079  0.87781194  0.19368460    -0.44600
C664        C  0.11630354  0.63713503  0.10681548     0.44900
N665        N  0.48247260  0.04358403  0.10036514    -0.44600
Co666      Co  0.45128118  0.95791775  0.21145515     0.73900
C667        C  0.42883972  0.52619645  0.21635023    -0.04900
C668        C  0.09310694  0.62319506  0.25112780    -0.04400
N669        N  0.07082359  0.49484382  0.12727103    -0.24000
N670        N  0.97225676  0.59703572  0.25774521    -0.44700
H671        H  0.06151248  0.64440162  0.11050037     0.08900
C672        C  0.39563900  0.95998477  0.09430817    -0.04900
Cl673      Cl  0.51550370  0.49998624  0.16479143    -0.47900
C674        C  0.44578248  0.85726943  0.16017123     0.44700
H675        H  0.12895103  0.50865772  0.10615062     0.08900
N676        N  0.37983854  0.95212579  0.17066753    -0.44600
C677        C  0.15676305  0.81818321  0.34898242     0.32100
C678        C  0.15487622  0.80365236  0.44638217     0.32100
C679        C  0.12638843  0.82498037  0.37933682    -0.04100
C680        C  0.14942874  0.77798117  0.36414933    -0.04900
C681        C  0.19280823  0.84064955  0.37653192    -0.04800
C682        C  0.12574390  0.81733395  0.42840237    -0.04100
C683        C  0.14890612  0.77064971  0.41358670    -0.04900
C684        C  0.19106412  0.83307480  0.42527777    -0.04800
C685        C  0.10695799  0.83554539  0.45100691    -0.30200
N686        N  0.09590786  0.85404730  0.41834463     0.16300
C687        C  0.10785816  0.84829074  0.37477943    -0.30200
H688        H  0.10579029  0.86235087  0.34265866     0.18300
C689        C  0.12738304  0.73327593  0.41999115    -0.29200
N690        N  0.11508886  0.71768782  0.37761958     0.15100
C691        C  0.12769049  0.74464375  0.34363639    -0.29100
C692        C  0.22467249  0.85507778  0.44387207    -0.29400
N693        N  0.24749245  0.87612612  0.40852361     0.15600
H694        H  0.23220100  0.85452473  0.48029908     0.18200
C695        C  0.22861746  0.86751794  0.36716929    -0.29400
H696        H  0.24031756  0.87948686  0.33289578     0.18200
H697        H  0.11877050  0.74122046  0.30738687     0.18200
H698        H  0.10372235  0.83698487  0.48889256     0.18300
H699        H  0.11756218  0.71925543  0.45379218     0.18200
C700        C  0.16558048  0.83416249  0.09679635     0.32100
C701        C  0.16034581  0.83130644  0.19573027     0.32100
C702        C  0.13774481  0.84927026  0.12004305    -0.04100
C703        C  0.15403988  0.79548767  0.12070950    -0.04900
C704        C  0.20218285  0.85687004  0.12311564    -0.04800
C705        C  0.13485183  0.84743842  0.16992622    -0.04100
C706        C  0.15117967  0.79406712  0.17022408    -0.04900
C707        C  0.19940228  0.85540935  0.17284887    -0.04800
C708        C  0.11452208  0.86815468  0.18316076    -0.30200
N709        N  0.10568441  0.88326078  0.14403097     0.16300
C710        C  0.12014001  0.87222117  0.10550684    -0.30200
H711        H  0.11854239  0.88067874  0.06945684     0.18300
C712        C  0.14403408  0.75794366  0.18375326    -0.29200
N713        N  0.14329747  0.73758556  0.14472392     0.15100
C714        C  0.14932417  0.76026589  0.10603493    -0.29100
C715        C  0.23462769  0.87745198  0.18892736    -0.29400
N716        N  0.25870666  0.89217614  0.15131005     0.15600
H717        H  0.24231858  0.88233426  0.22560204     0.18200
C718        C  0.23919151  0.87976491  0.11090541    -0.29400
H719        H  0.25078639  0.88667741  0.07532301     0.18200
H720        H  0.14955674  0.75168198  0.06983746     0.18200
H721        H  0.10807475  0.87321772  0.21912189     0.18300
H722        H  0.13979181  0.74719450  0.21967300     0.18200
C723        C  0.15784936  0.82516665  0.29473656    -0.11200
C724        C  0.15860196  0.82884360  0.25061757    -0.12800
C725        C  0.15568262  0.79899985  0.50062072    -0.11200
C726        C  0.15811757  0.79892921  0.54457048    -0.12800
C727        C  0.12996023  0.69741096  0.14538315    -0.14400
C728        C  0.14111329  0.67735839  0.11427245    -0.29500
H729        H  0.10760676  0.68237775  0.17097393     0.14700
H730        H  0.16450730  0.69137994  0.08960914     0.15200
C731        C  0.32346129  0.92896408  0.11989764    -0.14400
C732        C  0.29827208  0.91600697  0.15636115    -0.29500
H733        H  0.31456033  0.92280859  0.08374689     0.14700
H734        H  0.30837964  0.92283584  0.19207682     0.15200
C735        C  0.08176480  0.90413482  0.14446891    -0.14400
C736        C  0.09106242  0.93763579  0.12219463    -0.29500
H737        H  0.05627924  0.89345986  0.16664511     0.14700
H738        H  0.11813228  0.95014306  0.10348521     0.15200
C739        C  0.06359233  0.66812252  0.33742805    -0.14400
C740        C  0.08796193  0.68001141  0.37323405    -0.29500
H741        H  0.06561571  0.68578439  0.30705711     0.14700
H742        H  0.08479716  0.66122216  0.40291625     0.15200
C743        C  0.30201506  0.91079149  0.45574093    -0.14400
C744        C  0.28657360  0.90009343  0.41314968    -0.29500
H745        H  0.28477302  0.90529220  0.48784830     0.14700
H746        H  0.30412341  0.90823146  0.38116090     0.15200
C747        C  0.07724911  0.89278550  0.47064726    -0.14400
C748        C  0.07601486  0.87711519  0.42821751    -0.29500
H749        H  0.09568233  0.89086257  0.49787860     0.14700
H750        H  0.05969282  0.88203847  0.40033252     0.15200
C751        C  0.40785983  0.93973313  0.30504216    -0.16400
C752        C  0.38272469  0.94890297  0.29401889     0.07600
C753        C  0.37001114  0.48244364  0.29052298     0.09500
C754        C  0.38111541  0.51224895  0.30947127    -0.17300
C755        C  0.50467434  0.60905229  0.11877964    -0.16400
C756        C  0.48066755  0.62075740  0.12415171     0.07600
C757        C  0.43316386  0.10814378  0.10481191     0.09500
C758        C  0.41902485  0.08804544  0.07254434    -0.17300
C759        C  0.42727980  0.59187919  0.23305962    -0.14400
C760        C  0.39390667  0.58587176  0.21273902    -0.29500
H761        H  0.44114428  0.61678760  0.25343526     0.14700
H762        H  0.38205569  0.56250538  0.18923485     0.15200
C763        C  0.41393402  0.79932895  0.20352873    -0.14400
C764        C  0.42834554  0.81662113  0.16204073    -0.29500
H765        H  0.41925652  0.81540584  0.23571400     0.14700
H766        H  0.42509992  0.80147082  0.12943762     0.15200
C767        C  0.18788460  0.63475462  0.23034659    -0.14400
C768        C  0.16618494  0.63969850  0.26562936    -0.29500
H769        H  0.17342504  0.61789128  0.20072717     0.14700
H770        H  0.17902667  0.65728109  0.29526952     0.15200
C771        C  0.39923301  0.59038543  0.52811245    -0.14400
C772        C  0.40203748  0.61454072  0.49304116    -0.29500
H773        H  0.37382399  0.57903170  0.55029832     0.14700
H774        H  0.37398506  0.57418717  0.97082701     0.15200
C775        C  0.41931962  0.81763970  0.46928859    -0.14400
C776        C  0.42547067  0.84182925  0.50526134    -0.29500
H777        H  0.38242281  0.82780627  0.95822583     0.14700
H778        H  0.41049205  0.83232902  0.53876817     0.15200
C779        C  0.19099669  0.63469512  0.45006062    -0.14400
C780        C  0.17525032  0.61458707  0.41198327    -0.29500
H781        H  0.17641777  0.56964604  0.93842258     0.14700
H782        H  0.19238098  0.61145398  0.38297653     0.15200
C783        C  0.33502289  0.68164053  0.36709776    -0.11200
C784        C  0.33303680  0.67657202  0.32354020    -0.12800
C785        C  0.31974823  0.66613496  0.11727990    -0.11200
C786        C  0.31747751  0.66846597  0.07369300    -0.13600
C787        C  0.32119612  0.68692253  0.51916261     0.32100
C788        C  0.31105577  0.68075901  0.92219308     0.32100
C789        C  0.33649817  0.65851053  0.50096664    -0.04100
C790        C  0.28656886  0.67776809  0.48839595    -0.04900
C791        C  0.34951196  0.72343185  0.49523490    -0.04800
C792        C  0.33740827  0.66311698  0.93933357    -0.04100
C793        C  0.27407041  0.65676704  0.94916499    -0.04900
C794        C  0.32460990  0.71684944  0.95121840    -0.04800
C795        C  0.35144461  0.64018960  0.91768958    -0.30200
N796        N  0.36200757  0.62195315  0.95137083     0.16300
C797        C  0.35634174  0.64017729  0.52116882    -0.30200
H798        H  0.36127977  0.63875671  0.55833577     0.18300
C799        C  0.23934366  0.63149677  0.93624915    -0.29200
N800        N  0.23096946  0.65338199  0.45470635     0.15100
C801        C  0.24823403  0.66324247  0.49669855    -0.29100
C802        C  0.33699503  0.75447705  0.94219879    -0.29400
N803        N  0.39207529  0.77920808  0.47131843     0.15600
H804        H  0.34073079  0.76768968  0.90769070     0.18200
C805        C  0.37257089  0.75876947  0.50973290    -0.29400
H806        H  0.37505934  0.76853203  0.54563792     0.18200
H807        H  0.23388231  0.65780613  0.53093382     0.18200
H808        H  0.35079545  0.63472420  0.88023002     0.18300
H809        H  0.22967398  0.62535394  0.90042257     0.18200
C810        C  0.30565638  0.68215394  0.76928671     0.32100
C811        C  0.30313130  0.68421412  0.67049922     0.32100
C812        C  0.32904669  0.66427127  0.74119038    -0.04100
C813        C  0.26603663  0.66298804  0.74736175    -0.04900
C814        C  0.31919022  0.72078490  0.74513403    -0.04800
C815        C  0.32704734  0.66582339  0.69185988    -0.04100
C816        C  0.26476195  0.66361055  0.69745171    -0.04900
C817        C  0.31815730  0.72164267  0.69547853    -0.04800
C818        C  0.34899916  0.64984713  0.67224818    -0.30200
N819        N  0.36463121  0.63755600  0.70699240     0.16300
C820        C  0.35324015  0.64658584  0.74947741    -0.30200
H821        H  0.36155451  0.64045454  0.78365575     0.18300
C822        C  0.22709966  0.64623718  0.68618928    -0.29200
N823        N  0.20558858  0.63614848  0.72680437     0.15100
C824        C  0.22902634  0.64616080  0.76421928    -0.29100
C825        C  0.32699152  0.75768521  0.68172707    -0.29400
N826        N  0.33290938  0.77871250  0.72090847     0.15600
H827        H  0.32837521  0.76788997  0.64581821     0.18200
C828        C  0.32838430  0.75659925  0.75980142    -0.29400
H829        H  0.33149329  0.76572224  0.79603027     0.18200
H830        H  0.21991584  0.64060455  0.80092739     0.18200
H831        H  0.35372328  0.64795459  0.63490327     0.18300
H832        H  0.21605303  0.64117952  0.65089529     0.18200
C833        C  0.09574534  0.94944128  0.84121944     0.44500
N834        N  0.05108625  0.96864326  0.84615843     0.03400
C835        C  0.03814775  0.60721836  0.99488912    -0.04500
H836        H  0.11030053  0.61764074  0.47117944     0.08900
C837        C  0.52507282  0.00158603  0.54657201    -0.04800
Co838      Co  0.05290255  0.53325744  0.89914527     0.74200
N839        N  0.05959868  0.51976216  0.99848113    -0.24000
Co840      Co  0.00595607  0.52124724  0.00452774     0.74100
C841        C  0.56258265  0.02995840  0.54114673     0.44600
N842        N  0.42168457  0.92680553  0.01174676     0.03000
N843        N  0.98264466  0.46576592  0.02702259     0.03100
N844        N  0.07380872  0.61342067  0.92860248    -0.44800
H845        H  0.13497715  0.99836151  0.88511403     0.08900
N846        N  0.07480149  0.51883524  0.95673763     0.03400
N847        N  0.46175228  0.55490056  0.90815380     0.03200
C848        C  0.41481841  0.56939441  0.89560530     0.44800
N849        N  0.44701071  0.91247196  0.00624581    -0.23400
C850        C  0.02950093  0.58225391  0.83967468    -0.04400
N851        N  0.05973283  0.94165735  0.82913680    -0.44600
N852        N  0.45277666  0.58245196  0.89471715    -0.44800
C853        C  0.52913044  0.44558832  0.79501697     0.44500
N854        N  0.05211976  0.57826293  0.93767740     0.03400
N855        N  0.42951565  0.91310641  0.90927902    -0.23500
N856        N  0.07903424  0.99301212  0.86941926    -0.24000
N857        N  0.41052152  0.93390671  0.91655812     0.03000
H858        H  0.41229916  0.85798595  0.88135991     0.08900
H859        H  0.37261291  0.51305111  0.92464396     0.09000
N860        N  0.03144405  0.57383421  0.97658879    -0.24000
N861        N  0.43820570  0.01605293  0.01698840    -0.23600
N862        N  0.51222804  0.93302499  0.88668455     0.03400
C863        C  0.12249796  0.53814200  0.00209844     0.44800
C864        C  0.43221488  0.87726948  0.02146804    -0.04900
N865        N  0.43167272  0.52417207  0.91844844    -0.23600
H866        H  0.51811393  0.97447026  0.53322380     0.09000
N867        N  0.11144345  0.52823780  0.95789250    -0.44800
H868        H  0.44312437  0.85718744  0.01041405     0.08900
C869        C  0.37109348  0.88669585  0.88081732     0.44600
C870        C  0.10858622  0.98376489  0.86763541    -0.04400
Co871      Co  0.47931920  0.92288365  0.94603890     0.73800
N872        N  0.38876264  0.90055444  0.02694865    -0.44600
C873        C  0.06596274  0.63332546  0.96223453     0.44900
N874        N  0.50333800  0.91106223  0.85027202    -0.44600
Co875      Co  0.42435162  0.97279231  0.96819557     0.73900
C876        C  0.40070122  0.53070780  0.91165253    -0.04900
C877        C  0.08795180  0.53295358  0.02892215    -0.04400
N878        N  0.02853886  0.54790313  0.84355464    -0.24000
N879        N  0.06797663  0.55135829  0.52118620    -0.44700
H880        H  0.02671896  0.61224585  0.02797100     0.08900
C881        C  0.40689176  0.88261321  0.88614553    -0.04900
Cl882      Cl  0.50132465  0.49888115  0.93655896    -0.47900
C883        C  0.39346950  0.86880916  0.03501076     0.44700
H884        H  0.05149820  0.60746281  0.85132263     0.08900
N885        N  0.37642386  0.91964193  0.89939347    -0.44600
C886        C  0.06270496  0.90923927  0.71785235     0.44500
N887        N  0.01612000  0.92431823  0.70409291     0.03400
C888        C  0.05917012  0.59965380  0.60995145    -0.04500
H889        H  0.06352297  0.62122487  0.74017157     0.08900
C890        C  0.39942688  0.00127313  0.78179820    -0.04800
Co891      Co  0.05223936  0.50253350  0.67831625     0.74200
N892        N  0.04130210  0.56215358  0.72940620    -0.24000
Co893      Co  0.99894372  0.55515672  0.67866140     0.74100
C894        C  0.42557361  0.01880215  0.81882012     0.44600
N895        N  0.40519011  0.92899919  0.72212123     0.03000
N896        N  0.95345232  0.54397506  0.72615670     0.03100
N897        N  0.10065118  0.57393238  0.62091958    -0.44800
H898        H  0.10519650  0.96949801  0.70979195     0.08900
N899        N  0.05821409  0.53896110  0.73196806     0.03400
N900        N  0.45608527  0.56239637  0.64882563     0.03200
C901        C  0.40949006  0.57879211  0.64538146     0.44800
N902        N  0.42875771  0.91277212  0.71678447    -0.23400
C903        C  0.07596101  0.45828692  0.60679342    -0.04400
N904        N  0.02526359  0.89561039  0.71036154    -0.44600
N905        N  0.44707930  0.59150522  0.65072062    -0.44800
C906        C  0.56474889  0.43783984  0.56524209     0.44500
N907        N  0.06574755  0.55004504  0.63315412     0.03400
N908        N  0.42300747  0.92492082  0.61924296    -0.23500
N909        N  0.04587103  0.95645790  0.70519462    -0.24000
N910        N  0.40662969  0.94846355  0.62380558     0.03000
H911        H  0.39823593  0.86685423  0.60272483     0.08900
H912        H  0.36669040  0.51890055  0.64610573     0.09000
N913        N  0.04163156  0.56586440  0.62933066    -0.24000
N914        N  0.42223375  0.00909880  0.74397803    -0.23600
N915        N  0.51112956  0.94216749  0.61125201     0.03400
C916        C  0.09990778  0.58972399  0.75969895     0.44800
C917        C  0.41602861  0.88109964  0.74141581    -0.04900
N918        N  0.42592969  0.53095859  0.64371036    -0.23600
H919        H  0.37334349  0.97657701  0.78505257     0.09000
N920        N  0.09193200  0.55398601  0.75075157    -0.44800
H921        H  0.42684649  0.85989245  0.73720015     0.08900
C922        C  0.36428718  0.90156070  0.58975298     0.44600
C923        C  0.07629373  0.94962842  0.71508160    -0.04400
Co924      Co  0.46787385  0.92681275  0.66267168     0.73800
N925        N  0.37440002  0.90756472  0.74678147    -0.44600
C926        C  0.09859249  0.60579757  0.60532527     0.44900
N927        N  0.51689734  0.91898900  0.58126597    -0.44600
Co928      Co  0.41452122  0.97866384  0.68442038     0.73900
C929        C  0.39547071  0.53890829  0.64027221    -0.04900
C930        C  0.06599355  0.59513621  0.74570916    -0.04400
N931        N  0.04712540  0.46419140  0.62583461    -0.24000
N932        N  0.94539133  0.57097461  0.74378297    -0.44700
H933        H  0.04832330  0.62095048  0.61237064     0.08900
C934        C  0.39716594  0.89380495  0.60043320    -0.04900
Cl935      Cl  0.48967470  0.49885429  0.66645904    -0.47900
C936        C  0.37899191  0.87639329  0.75964244     0.44700
H937        H  0.10542871  0.47676267  0.60963460     0.08900
N938        N  0.37264465  0.93591361  0.60574218    -0.44600
C939        C  0.17371457  0.81389459  0.84828737     0.32100
C940        C  0.17133463  0.82475017  0.94514134     0.32100
C941        C  0.17218765  0.85064335  0.86372046    -0.04100
C942        C  0.13968489  0.78545158  0.87623568    -0.04900
C943        C  0.20724759  0.81311611  0.87647996    -0.04800
C944        C  0.17153995  0.85626671  0.91272635    -0.04100
C945        C  0.13839318  0.79101573  0.92571166    -0.04900
C946        C  0.20566614  0.81842278  0.92589255    -0.04800
C947        C  0.16102113  0.88526453  0.91929601    -0.30200
N948        N  0.15459325  0.89695811  0.87655647     0.16300
C949        C  0.16071933  0.87582648  0.84241102    -0.30200
H950        H  0.15526973  0.87734300  0.80529448     0.18300
C951        C  0.11959192  0.75643242  0.94630057    -0.29200
N952        N  0.10904178  0.73068788  0.91204947     0.15100
C953        C  0.12175455  0.74786313  0.86981896    -0.29100
C954        C  0.24222686  0.83303992  0.94071838    -0.29400
N955        N  0.26591708  0.83619212  0.90359902     0.15600
H956        H  0.25123926  0.84598895  0.97451972     0.18200
C957        C  0.24513483  0.82503935  0.86421199    -0.29400
H958        H  0.25684585  0.83102922  0.82853237     0.18200
H959        H  0.12227941  0.73361688  0.83739916     0.18200
H960        H  0.15518880  0.89503997  0.95292729     0.18300
H961        H  0.11871368  0.75021553  0.98371181     0.18200
C962        C  0.16206013  0.79971920  0.59881569     0.32100
C963        C  0.16978186  0.80042350  0.69701872     0.32100
C964        C  0.13861443  0.81655612  0.62855644    -0.04100
C965        C  0.15183432  0.76174380  0.62383513    -0.04900
C966        C  0.20226346  0.82124925  0.61759347    -0.04800
C967        C  0.14302556  0.81665838  0.67768640    -0.04100
C968        C  0.15536456  0.76188958  0.67335695    -0.04900
C969        C  0.20589210  0.82180831  0.66707157    -0.04800
C970        C  0.12289178  0.83474753  0.69789460    -0.30200
N971        N  0.10598295  0.84601211  0.66334634     0.16300
C972        C  0.11499645  0.83480828  0.62092154    -0.30200
H973        H  0.10598358  0.84048443  0.58694233     0.18300
C974        C  0.14781367  0.72575428  0.68702456    -0.29200
N975        N  0.14068990  0.70415512  0.64792651     0.15100
C976        C  0.14310876  0.72589525  0.60934414    -0.29100
C977        C  0.24364261  0.84005477  0.67604780    -0.29400
N978        N  0.26318900  0.85006536  0.63425198     0.15600
H979        H  0.25617606  0.84522691  0.71054286     0.18200
C980        C  0.23835875  0.83876012  0.59833394    -0.29400
H981        H  0.24593159  0.84312319  0.56113711     0.18200
H982        H  0.13814158  0.71625260  0.57339002     0.18200
H983        H  0.12084476  0.83942372  0.73526153     0.18300
H984        H  0.14768943  0.71586509  0.72282551     0.18200
C985        C  0.17417545  0.80759225  0.79464454    -0.11200
C986        C  0.17323445  0.80295615  0.75110246    -0.12800
C987        C  0.16974689  0.83053166  0.99881624    -0.11200
C988        C  0.16823422  0.83373802  0.04249131    -0.12800
C989        C  0.12599090  0.66406111  0.64894888    -0.14400
C990        C  0.12819503  0.64379248  0.61151679    -0.29500
H991        H  0.10863364  0.64973609  0.67931457     0.14700
H992        H  0.14593693  0.65745372  0.58101256     0.15200
C993        C  0.32485990  0.87361624  0.59248985    -0.14400
C994        C  0.30317173  0.87241785  0.63081145    -0.29500
H995        H  0.31347966  0.85538539  0.56293706     0.14700
H996        H  0.31632091  0.88941443  0.66093105     0.15200
C997        C  0.08220487  0.86605930  0.67097875    -0.14400
C998        C  0.08670514  0.88858094  0.70843161    -0.29500
H999        H  0.06085570  0.86356106  0.64532765     0.14700
H1000       H  0.11040070  0.89409645  0.73137494     0.15200
C1001       C  0.07852942  0.67369543  0.95890917    -0.14400
C1002       C  0.09505669  0.69132674  0.91844058    -0.29500
H1003       H  0.07351358  0.68852185  0.98858587     0.14700
H1004       H  0.09780836  0.67536739  0.88850300     0.15200
C1005       C  0.33282728  0.85639313  0.88188582    -0.14400
C1006       C  0.30448413  0.86217935  0.90357829    -0.29500
H1007       H  0.32789060  0.82954496  0.86728525     0.14700
H1008       H  0.31038133  0.88777583  0.92248358     0.15200
C1009       C  0.11286416  0.92204164  0.84134870    -0.14400
C1010       C  0.14092344  0.92550176  0.87072431    -0.29500
H1011       H  0.10047724  0.89743316  0.82001865     0.14700
H1012       H  0.15100428  0.94849213  0.89496870     0.15200
C1013       C  0.43370040  0.98970998  0.83775379    -0.16400
C1014       C  0.44735985  0.96873393  0.82693420     0.07600
C1015       C  0.48018448  0.46821389  0.78813730     0.09500
C1016       C  0.50236665  0.45653572  0.77439460    -0.17300
C1017       C  0.58452784  0.43420056  0.52322133    -0.16400
C1018       C  0.60635278  0.45272058  0.49266866     0.07600
C1019       C  0.59533529  0.99954065  0.48973474     0.09500
C1020       C  0.58797962  0.02326767  0.50842164    -0.17300
C1021       C  0.38562564  0.59858937  0.65841153    -0.14400
C1022       C  0.38915186  0.61851759  0.69819483    -0.29500
H1023       H  0.36199416  0.59392559  0.63566410     0.14700
H1024       H  0.41008618  0.61992253  0.72392522     0.15200
C1025       C  0.34675904  0.81847234  0.71914927    -0.14400
C1026       C  0.34855288  0.83891836  0.75761572    -0.29500
H1027       H  0.36087962  0.83252131  0.68654589     0.14700
H1028       H  0.33374518  0.82579334  0.78987114     0.15200
C1029       C  0.16576037  0.61206017  0.72869069    -0.14400
C1030       C  0.13981673  0.61800276  0.75641734    -0.29500
H1031       H  0.15631596  0.58819666  0.70569558     0.14700
H1032       H  0.14791919  0.64331600  0.77649010     0.15200
C1033       C  0.39576951  0.59451410  0.90265213    -0.14400
C1034       C  0.37649805  0.59414975  0.94286215    -0.29500
H1035       H  0.40173746  0.61672242  0.87675233     0.14700
H1036       H  0.42582725  0.62295609  0.46805099     0.15200
C1037       C  0.36440515  0.81259625  0.98778864    -0.14400
C1038       C  0.36383532  0.83109105  0.02766305    -0.29500
H1039       H  0.43435810  0.82770413  0.43588150     0.14700
H1040       H  0.34499895  0.81696241  0.05711531     0.15200
C1041       C  0.18460613  0.58128635  0.97320540    -0.14400
C1042       C  0.16037703  0.56748162  0.01034184    -0.29500
H1043       H  0.17338068  0.63562949  0.47990471     0.14700
H1044       H  0.16707633  0.57954853  0.04508473     0.15200
C1045       C  0.30880461  0.68281493  0.86783957    -0.11200
C1046       C  0.30728107  0.68229654  0.82378430    -0.12800
C1047       C  0.30600559  0.68578759  0.61605289    -0.11200
C1048       C  0.31300935  0.68681103  0.57272138    -0.13600
C1049       C  0.82410299  0.17424073  0.02327282     0.32100
C1050       C  0.81798930  0.19519273  0.42531706     0.32100
C1051       C  0.83449529  0.14356148  0.99980921    -0.04100
C1052       C  0.78333166  0.16364510  0.00650287    -0.04900
C1053       C  0.84615438  0.20754062  0.99025006    -0.04800
C1054       C  0.83264161  0.16744333  0.44440160    -0.04100
C1055       C  0.77969796  0.18225518  0.45098379    -0.04900
C1056       C  0.84140465  0.23001235  0.45327456    -0.04800
C1057       C  0.84854732  0.14649861  0.42262479    -0.30200
N1058       N  0.86002006  0.12877947  0.45572316     0.16300
C1059       C  0.85316942  0.12117192  0.01187634    -0.30200
H1060       H  0.86373640  0.11893481  0.04633009     0.18300
C1061       C  0.74358677  0.17419657  0.43789047    -0.29200
N1062       N  0.72138956  0.13714030  0.99490935     0.15100
C1063       C  0.74807888  0.14958019  0.02842464    -0.29100
C1064       C  0.87269087  0.26149746  0.44154702    -0.29400
N1065       N  0.87799945  0.26072333  0.95180576     0.15600
H1066       H  0.88349228  0.27090134  0.40607872     0.18200
C1067       C  0.86939437  0.24436272  0.99540261    -0.29400
H1068       H  0.87773519  0.25871937  0.02847467     0.18200
H1069       H  0.74237003  0.14509454  0.06605399     0.18200
H1070       H  0.85150390  0.14435735  0.38492804     0.18300
H1071       H  0.73482584  0.17567312  0.40219471     0.18200
C1072       C  0.82205372  0.19674703  0.27260615     0.32100
C1073       C  0.82929206  0.19407669  0.17419607     0.32100
C1074       C  0.85217382  0.18371758  0.25329690    -0.04100
C1075       C  0.78670796  0.17021623  0.24653074    -0.04900
C1076       C  0.83207813  0.23392240  0.24485708    -0.04800
C1077       C  0.85595178  0.18251856  0.20386873    -0.04100
C1078       C  0.79075425  0.16941425  0.19694697    -0.04900
C1079       C  0.83589992  0.23269926  0.19529222    -0.04800
C1080       C  0.87941604  0.16449388  0.19489822    -0.30200
N1081       N  0.88916226  0.15405043  0.23670955     0.16300
C1082       C  0.87263035  0.16546745  0.27241380    -0.30200
H1083       H  0.87472242  0.16013847  0.30944202     0.18300
C1084       C  0.76194268  0.13788167  0.18171146    -0.29200
N1085       N  0.74019032  0.11925434  0.21927992     0.15100
C1086       C  0.75524014  0.13826722  0.25920635    -0.29100
C1087       C  0.84810217  0.26913462  0.17897874    -0.29400
N1088       N  0.85118439  0.29221045  0.21607445     0.15600
H1089       H  0.85625632  0.27846071  0.14279023     0.18200
C1090       C  0.84145492  0.27084631  0.25635926    -0.29400
H1091       H  0.84377945  0.28160397  0.29177252     0.18200
H1092       H  0.74584094  0.12846515  0.29492968     0.18200
H1093       H  0.88713761  0.15762019  0.16043704     0.18300
H1094       H  0.75860631  0.12769112  0.14595098     0.18200
C1095       C  0.56589092  0.46851788  0.36220370     0.44500
N1096       N  0.51397407  0.47629228  0.37282808     0.03400
C1097       C  0.49303307  0.14605595  0.44847597    -0.04500
H1098       H  0.57704397  0.12352300  0.00108594     0.08900
C1099       C  0.95205061  0.40714702  0.01503049    -0.04800
Co1100     Co  0.51653790  0.06244592  0.38661283     0.74200
N1101       N  0.55978839  0.10139654  0.46620147    -0.24000
Co1102     Co  0.50608052  0.08390182  0.49870683     0.74100
C1103       C  0.98877272  0.41351206  0.03238108     0.44600
N1104       N  0.97007630  0.42980083  0.49693707     0.03000
N1105       N  0.52111490  0.05341254  0.54578850     0.03100
N1106       N  0.50906767  0.13653719  0.37439508    -0.44800
H1107       H  0.59923844  0.53059838  0.35990495     0.08900
N1108       N  0.56372377  0.09080192  0.42327320     0.03400
N1109       N  0.96096909  0.06411726  0.38645413     0.03200
C1110       C  0.91755075  0.08545086  0.38611602     0.44800
N1111       N  0.97995704  0.41945011  0.45675525    -0.23400
C1112       C  0.44147574  0.05129380  0.33832469    -0.04400
N1113       N  0.52888441  0.45111710  0.37363090    -0.44600
N1114       N  0.95507875  0.09503080  0.38550330    -0.44800
C1115       C  0.05706034  0.92722722  0.32604693     0.44500
N1116       N  0.50079783  0.10654481  0.40147081     0.03400
N1117       N  0.91536085  0.43030526  0.42340688    -0.23500
N1118       N  0.53847137  0.50990381  0.36051205    -0.24000
N1119       N  0.91057300  0.44687290  0.46169518     0.03000
H1120       H  0.87679254  0.38988164  0.37773880     0.08900
H1121       H  0.87130534  0.02763329  0.39623598     0.09000
N1122       N  0.49266824  0.11207895  0.44543416    -0.24000
N1123       N  0.00956831  0.50960156  0.53009063    -0.23600
N1124       N  0.95692843  0.46093648  0.33595702     0.03400
C1125       C  0.61948041  0.12613894  0.44174316     0.44800
C1126       C  0.98005773  0.38594664  0.46159494    -0.04900
N1127       N  0.92873261  0.03410520  0.38585033    -0.23600
H1128       H  0.93153045  0.38127386  0.00294496     0.09000
N1129       N  0.59884857  0.10543063  0.40676842    -0.44800
H1130       H  0.98183875  0.36981781  0.43173734     0.08900
C1131       C  0.85482799  0.41309498  0.44035192     0.44600
C1132       C  0.57241207  0.50764818  0.35582252    -0.04400
Co1133     Co  0.96863837  0.43888249  0.39536190     0.73800
N1134       N  0.95991842  0.40242722  0.52874943    -0.44600
C1135       C  0.50528880  0.16294698  0.40175865     0.44900
N1136       N  0.92100946  0.45514661  0.33179945    -0.44600
Co1137     Co  0.95786128  0.47789755  0.49875892     0.73900
C1138       C  0.90007920  0.04517711  0.38560846    -0.04900
C1139       C  0.59387207  0.12421836  0.48108837    -0.04400
N1140       N  0.46447056  0.03594686  0.35522362    -0.24000
N1141       N  0.46291370  0.07702262  0.02053775    -0.44700
H1142       H  0.49565969  0.16056040  0.48142355     0.08900
C1143       C  0.88160360  0.40771602  0.40798178    -0.04900
Cl1144     Cl  0.98868539  0.99908835  0.41845205    -0.47900
C1145       C  0.96372918  0.37293075  0.50846859     0.44700
H1146       H  0.45036098  0.08063252  0.33124701     0.08900
N1147       N  0.87452924  0.43717948  0.47355946    -0.44600
C1148       C  0.58518285  0.44361095  0.07137394     0.44500
N1149       N  0.54447084  0.46788229  0.07884486     0.03400
C1150       C  0.57439429  0.11333660  0.23764187    -0.04500
H1151       H  0.61375628  0.04062482  0.30140860     0.08900
C1152       C  0.91808616  0.54843528  0.24418820    -0.04800
Co1153     Co  0.57165852  0.03465080  0.13980381     0.74200
N1154       N  0.58349880  0.01835091  0.23925460    -0.24000
Co1155     Co  0.53324271  0.02772652  0.25019758     0.74100
C1156       C  0.93461854  0.58433639  0.26700315     0.44600
N1157       N  0.92791564  0.45337943  0.22263096     0.03000
N1158       N  0.50028665  0.97684170  0.28386791     0.03100
N1159       N  0.60296186  0.11612058  0.16662667    -0.44800
H1160       H  0.63137187  0.49390925  0.10486039     0.08900
N1161       N  0.59740844  0.01988425  0.19551662     0.03400
N1162       N  0.98118863  0.07539353  0.26786811     0.03200
C1163       C  0.93100417  0.08584260  0.27547664     0.44800
N1164       N  0.95301335  0.43862381  0.22596667    -0.23400
C1165       C  0.54246997  0.08372648  0.09470062    -0.04400
N1166       N  0.54875920  0.43775620  0.06450273    -0.44600
N1167       N  0.96833240  0.10184774  0.26646704    -0.44800
C1168       C  0.92507384  0.04041140  0.10324255     0.44500
N1169       N  0.57977818  0.08170331  0.17814084     0.03400
N1170       N  0.95122504  0.44114672  0.12670086    -0.23500
N1171       N  0.57596439  0.49248152  0.09558909    -0.24000
N1172       N  0.93401760  0.46399997  0.12376638     0.03000
H1173       H  0.92839225  0.38153479  0.12057614     0.08900
H1174       H  0.89393943  0.02412221  0.28706724     0.09000
N1175       N  0.56333976  0.07918751  0.21963484    -0.24000
N1176       N  0.94677015  0.54150935  0.22658613    -0.23600
N1177       N  0.04033078  0.46312633  0.12693561     0.03400
C1178       C  0.64662919  0.03556341  0.23874062     0.44800
C1179       C  0.93632410  0.40398306  0.24338209    -0.04900
N1180       N  0.95450313  0.04214417  0.27744013    -0.23600
H1181       H  0.88854216  0.53014427  0.24152450     0.09000
N1182       N  0.63427093  0.02921633  0.19423044    -0.44800
H1183       H  0.94844857  0.38371182  0.24010212     0.08900
C1184       C  0.89149361  0.41220719  0.09986320     0.44600
C1185       C  0.60335029  0.48035539  0.09095769    -0.04400
Co1186     Co  0.99532517  0.45075932  0.17563358     0.73800
N1187       N  0.89323652  0.42785202  0.23359194    -0.44600
C1188       C  0.60037556  0.13775661  0.20188659     0.44900
N1189       N  0.04779440  0.43632609  0.10778344    -0.44600
Co1190     Co  0.94087286  0.50118475  0.17630736     0.73900
C1191       C  0.92164239  0.04628272  0.28260912    -0.04900
C1192       C  0.61288405  0.02763856  0.26837729    -0.04400
N1193       N  0.54045813  0.04891902  0.09088540    -0.24000
N1194       N  0.47415777  0.97562647  0.31520621    -0.44700
H1195       H  0.56614643  0.11996036  0.27192252     0.08900
C1196       C  0.92583990  0.40737814  0.11338740    -0.04900
Cl1197     Cl  0.99968049  0.02528670  0.19779232    -0.47900
C1198       C  0.89644955  0.39594939  0.24744051     0.44700
H1199       H  0.56783894  0.10859234  0.09743004     0.08900
N1200       N  0.89967487  0.44821846  0.10685562    -0.44600
C1201       C  0.66628236  0.34334502  0.33085695     0.32100
C1202       C  0.65734048  0.33718359  0.42971287     0.32100
C1203       C  0.65323317  0.37205553  0.35545567    -0.04100
C1204       C  0.63679047  0.30637402  0.35157531    -0.04900
C1205       C  0.70108663  0.34799550  0.35943397    -0.04800
C1206       C  0.64867810  0.36872766  0.40571569    -0.04100
C1207       C  0.63225646  0.30338731  0.40112937    -0.04900
C1208       C  0.69629025  0.34486707  0.40858540    -0.04800
C1209       C  0.62503750  0.38613446  0.41813699    -0.30200
N1210       N  0.61677352  0.40178874  0.37921141     0.16300
C1211       C  0.63291501  0.39242881  0.34085135    -0.30200
H1212       H  0.62704252  0.39661915  0.30457467     0.18300
C1213       C  0.60257887  0.27003945  0.41129153    -0.29200
N1214       N  0.58913531  0.25262422  0.36996265     0.15100
C1215       C  0.61005703  0.27431248  0.33347946    -0.29100
C1216       C  0.73121324  0.35564678  0.42752172    -0.29400
N1217       N  0.75722891  0.36554106  0.39167232     0.15600
H1218       H  0.73719341  0.35764953  0.46473671     0.18200
C1219       C  0.73929435  0.36070469  0.34995731    -0.29400
H1220       H  0.75324038  0.36822380  0.31556259     0.18200
H1221       H  0.60544667  0.26765060  0.29646720     0.18200
H1222       H  0.61220060  0.38477412  0.45280948     0.18300
H1223       H  0.59163633  0.25930977  0.44627338     0.18200
C1224       C  0.68667125  0.32472520  0.08217541     0.32100
C1225       C  0.68492495  0.33602581  0.18002255     0.32100
C1226       C  0.66788086  0.35053568  0.09936003    -0.04100
C1227       C  0.66591295  0.29026287  0.11387453    -0.04900
C1228       C  0.72551141  0.34167971  0.10650610    -0.04800
C1229       C  0.66737650  0.35612000  0.14836465    -0.04100
C1230       C  0.66494057  0.29591765  0.16291221    -0.04900
C1231       C  0.72470004  0.34765795  0.15574390    -0.04800
C1232       C  0.65019962  0.37993976  0.15619057    -0.30200
N1233       N  0.63954927  0.38860124  0.11413205     0.16300
C1234       C  0.65018454  0.37104130  0.07916695    -0.30200
H1235       H  0.64665358  0.37423008  0.04194692     0.18300
C1236       C  0.65030574  0.26146799  0.18448859    -0.29200
N1237       N  0.64233547  0.23538705  0.15042105     0.15100
C1238       C  0.65192172  0.25264228  0.10749715    -0.29100
C1239       C  0.76198083  0.36442241  0.16891734    -0.29400
N1240       N  0.78517282  0.36810912  0.13047834     0.15600
H1241       H  0.77162205  0.37455119  0.20377579     0.18200
C1242       C  0.76319354  0.35435274  0.09229132    -0.29400
H1243       H  0.77377929  0.35556558  0.05636371     0.18200
H1244       H  0.65059370  0.23878907  0.07425307     0.18200
H1245       H  0.64606202  0.39060359  0.19000809     0.18300
H1246       H  0.64805827  0.25606189  0.22218738     0.18200
C1247       C  0.67355519  0.34399374  0.27669232    -0.11200
C1248       C  0.68045249  0.34143087  0.23372254    -0.12800
C1249       C  0.65704379  0.33232562  0.48422833    -0.11200
C1250       C  0.66145845  0.32738454  0.52712115    -0.12800
C1251       C  0.62955088  0.19598954  0.15702673    -0.14400
C1252       C  0.61422319  0.17837412  0.19800841    -0.29500
H1253       H  0.63148860  0.17991559  0.12679519     0.14700
H1254       H  0.61035935  0.19344101  0.22813600     0.15200
C1255       C  0.85148330  0.38404710  0.10340029    -0.14400
C1256       C  0.82537856  0.39110296  0.12948622    -0.29500
H1257       H  0.84337315  0.35830957  0.08424608     0.14700
H1258       H  0.83499193  0.41559377  0.15141815     0.15200
C1259       C  0.62419261  0.41591311  0.10878599    -0.14400
C1260       C  0.59898263  0.41386698  0.07578936    -0.29500
H1261       H  0.63228116  0.43809979  0.13430083     0.14700
H1262       H  0.58779425  0.38989666  0.05316156     0.15200
C1263       C  0.53106893  0.20261484  0.39800988    -0.14400
C1264       C  0.55904243  0.21635629  0.36521278    -0.29500
H1265       H  0.52961894  0.22025537  0.42659575     0.14700
H1266       H  0.56013490  0.19942899  0.33554686     0.15200
C1267       C  0.81379480  0.39776137  0.43620541    -0.14400
C1268       C  0.79733771  0.38102983  0.39641200    -0.29500
H1269       H  0.79722417  0.40119278  0.46566162     0.14700
H1270       H  0.81449486  0.38020110  0.36599264     0.15200
C1271       C  0.59458829  0.45140989  0.36090229    -0.14400
C1272       C  0.58809181  0.41709370  0.37869264    -0.29500
H1273       H  0.62244076  0.46820141  0.34601336     0.14700
H1274       H  0.56121745  0.40144684  0.39679645     0.15200
C1275       C  0.91900763  0.58647878  0.31276239    -0.16400
C1276       C  0.90151195  0.56614010  0.34476464     0.07600
C1277       C  0.09474958  0.94231915  0.25085790     0.09500
C1278       C  0.07441944  0.92336015  0.28221018    -0.17300
C1279       C  0.89314372  0.02665135  0.07309071    -0.16400
C1280       C  0.87480963  0.99603584  0.05823629     0.07600
C1281       C  0.04242102  0.39549967  0.00618238     0.09500
C1282       C  0.01173788  0.39571607  0.01315969    -0.17300
C1283       C  0.90503745  0.10489312  0.27044742    -0.14400
C1284       C  0.91374307  0.13485315  0.24164893    -0.29500
H1285       H  0.87801525  0.09360281  0.28943334     0.14700
H1286       H  0.93918252  0.14387636  0.21941886     0.15200
C1287       C  0.87127770  0.33251876  0.21310477    -0.14400
C1288       C  0.86674727  0.35690472  0.24397838    -0.29500
H1289       H  0.89305608  0.34365044  0.18564763     0.14700
H1290       H  0.84400641  0.34714691  0.27037986     0.15200
C1291       C  0.70814469  0.08429782  0.21411826    -0.14400
C1292       C  0.68329158  0.06653827  0.24926604    -0.29500
H1293       H  0.70240366  0.07329503  0.17865860     0.14700
H1294       H  0.68786530  0.07711140  0.28491024     0.15200
C1295       C  0.90029464  0.11048589  0.40358982    -0.14400
C1296       C  0.87905142  0.10478182  0.44406756    -0.29500
H1297       H  0.90665815  0.13557040  0.38268390     0.14700
H1298       H  0.85892864  0.05107695  0.94842832     0.15200
C1299       C  0.92532943  0.30938458  0.48152898    -0.14400
C1300       C  0.93461430  0.33453810  0.51630309    -0.29500
H1301       H  0.89832556  0.31752661  0.97426133     0.14700
H1302       H  0.91693454  0.32846904  0.54797353     0.15200
C1303       C  0.68082963  0.15330196  0.47933734    -0.14400
C1304       C  0.66048240  0.14117485  0.44064872    -0.29500
H1305       H  0.67826450  0.08156131  0.00235158     0.14700
H1306       H  0.67389966  0.13981052  0.40717647     0.15200
C1307       C  0.81832866  0.19807127  0.37093034    -0.11200
C1308       C  0.81919975  0.19795147  0.32688209    -0.12800
C1309       C  0.83114548  0.18916812  0.12000593    -0.11200
C1310       C  0.82942273  0.18204469  0.07683638    -0.13600
C1311       C  0.81704236  0.18680931  0.52385678     0.32100
C1312       C  0.81208683  0.16406874  0.92607616     0.32100
C1313       C  0.83296269  0.16249816  0.49380611    -0.04100
C1314       C  0.77909958  0.17810244  0.50031442    -0.04900
C1315       C  0.84071159  0.22598615  0.50313930    -0.04800
C1316       C  0.82772589  0.13842826  0.95081846    -0.04100
C1317       C  0.77741383  0.15872083  0.95763593    -0.04900
C1318       C  0.84033002  0.20202212  0.94160886    -0.04800
C1319       C  0.84112851  0.11282478  0.93573716    -0.30200
N1320       N  0.85678935  0.10261386  0.97267586     0.16300
C1321       C  0.85028067  0.13768179  0.49943241    -0.30200
H1322       H  0.85634093  0.12782405  0.53270273     0.18300
C1323       C  0.73900230  0.14181100  0.95188622    -0.29200
N1324       N  0.72095893  0.16495091  0.47743788     0.15100
C1325       C  0.74231665  0.16754705  0.51568992    -0.29100
C1326       C  0.86064920  0.23501653  0.91884678    -0.29400
N1327       N  0.89025304  0.27726650  0.48168000     0.15600
H1328       H  0.86074313  0.24030961  0.88142060     0.18200
C1329       C  0.87155123  0.25568871  0.51933030    -0.29400
H1330       H  0.88156483  0.25941084  0.55513893     0.18200
H1331       H  0.73173333  0.16188607  0.55187123     0.18200
H1332       H  0.84096786  0.10340793  0.89986812     0.18300
H1333       H  0.72504674  0.13018860  0.91941254     0.18200
C1334       C  0.80243568  0.16809068  0.77501148     0.32100
C1335       C  0.80443296  0.18007916  0.67699469     0.32100
C1336       C  0.82600956  0.15265392  0.74481301    -0.04100
C1337       C  0.76408241  0.15232091  0.75022965    -0.04900
C1338       C  0.81763823  0.20849184  0.75752319    -0.04800
C1339       C  0.82669666  0.15881172  0.69592566    -0.04100
C1340       C  0.76494422  0.15782472  0.70066486    -0.04900
C1341       C  0.81882799  0.21531460  0.70832454    -0.04800
C1342       C  0.84642078  0.14080554  0.67506785    -0.30200
N1343       N  0.85773437  0.12372698  0.70933568     0.16300
C1344       C  0.84594557  0.13102290  0.75213473    -0.30200
H1345       H  0.85031639  0.12021523  0.78569207     0.18300
C1346       C  0.72772701  0.14443614  0.68722956    -0.29200
N1347       N  0.70480729  0.13205190  0.72643066     0.15100
C1348       C  0.72669963  0.13679131  0.76487588    -0.29100
C1349       C  0.82909260  0.25335141  0.70315565    -0.29400
N1350       N  0.83389329  0.26863865  0.74705983     0.15600
H1351       H  0.83335672  0.26873292  0.67017156     0.18200
C1352       C  0.82696538  0.24147954  0.77984969    -0.29400
H1353       H  0.82823282  0.24559879  0.81755931     0.18200
H1354       H  0.71618380  0.12913543  0.80082424     0.18200
H1355       H  0.85173558  0.13980645  0.63752357     0.18300
H1356       H  0.71796337  0.14431419  0.65164739     0.18200
C1357       C  0.58998333  0.42764637  0.96144631     0.44500
N1358       N  0.54143770  0.44128323  0.95943967     0.03400
C1359       C  0.55062303  0.09919012  0.87494427    -0.04500
H1360       H  0.59970990  0.13743635  0.51505630     0.08900
C1361       C  0.03247164  0.49382976  0.54320377    -0.04800
Co1362     Co  0.55794492  0.00481267  0.92988738     0.74200
N1363       N  0.55479934  0.06473962  0.98750762    -0.24000
Co1364     Co  0.50397367  0.05429376  0.95073604     0.74100
C1365       C  0.07112921  0.52041869  0.53491325     0.44600
N1366       N  0.92623727  0.41035248  0.91661663     0.03000
N1367       N  0.46867985  0.04727109  0.00865004     0.03100
N1368       N  0.59550474  0.07692683  0.87408933    -0.44800
H1369       H  0.62997149  0.48733884  0.94429316     0.08900
N1370       N  0.57241346  0.04220071  0.98357341     0.03400
N1371       N  0.96703257  0.03193920  0.98884721     0.03200
C1372       C  0.92759951  0.05700795  0.97598399     0.44800
N1373       N  0.94601284  0.41499099  0.87687689    -0.23400
C1374       C  0.54980217  0.96649006  0.83217895    -0.04400
N1375       N  0.55197484  0.41329367  0.96281112    -0.44600
N1376       N  0.96249370  0.06356837  0.99095081    -0.44800
C1377       C  0.01689220  0.08115180  0.83347625     0.44500
N1378       N  0.56213752  0.05038534  0.88684445     0.03400
N1379       N  0.91866790  0.47083847  0.85605572    -0.23500
N1380       N  0.57072387  0.47366201  0.95444194    -0.24000
N1381       N  0.90271326  0.46897406  0.89799613     0.03000
H1382       H  0.89410924  0.45690646  0.78843020     0.08900
H1383       H  0.88486929  0.00322088  0.94493979     0.09000
N1384       N  0.53622732  0.06400413  0.89044019    -0.24000
N1385       N  0.95114131  0.44078762  0.01017464    -0.23600
N1386       N  0.99590572  0.52402805  0.82793323     0.03400
C1387       C  0.61507525  0.09201881  0.01077849     0.44800
C1388       C  0.94073401  0.38151191  0.85985192    -0.04900
N1389       N  0.93804918  0.00506040  0.97047038    -0.23600
H1390       H  0.02447158  0.46467296  0.54024345     0.09000
N1391       N  0.60755649  0.05709065  0.99776297    -0.44800
H1392       H  0.95282928  0.37633019  0.82737618     0.08900
C1393       C  0.85714134  0.45958670  0.85071647     0.44600
C1394       C  0.60251733  0.46775668  0.95691923    -0.04400
Co1395     Co  0.97182970  0.46810070  0.84920466     0.73800
N1396       N  0.90650180  0.37512258  0.92745976    -0.44600
C1397       C  0.59062231  0.10879854  0.86721241     0.44900
N1398       N  0.97374870  0.54105054  0.81788896    -0.44600
Co1399     Co  0.92513809  0.45473703  0.95530511     0.73900
C1400       C  0.91152932  0.01823089  0.96150268    -0.04900
C1401       C  0.58039738  0.09758900  0.00258828    -0.04400
N1402       N  0.54002767  0.96559818  0.87758938    -0.24000
N1403       N  0.55775617  0.06140061  0.54200257    -0.44700
H1404       H  0.53760402  0.11803215  0.88356356     0.08900
C1405       C  0.89176573  0.46460287  0.82409516    -0.04900
Cl1406     Cl  0.00916288  0.99745343  0.92349940    -0.47900
C1407       C  0.91503069  0.35531065  0.89443874     0.44700
H1408       H  0.56842581  0.99128036  0.81328173     0.08900
N1409       N  0.86679400  0.46299227  0.89626814    -0.44600
C1410       C  0.56485756  0.41880219  0.71208649     0.44500
N1411       N  0.52192814  0.43580863  0.68822190     0.03400
C1412       C  0.55061563  0.10742231  0.63195655    -0.04500
H1413       H  0.56406969  0.11588454  0.76218069     0.08900
C1414       C  0.89396820  0.51747691  0.74583904    -0.04800
Co1415     Co  0.55021042  0.00534725  0.67776293     0.74200
N1416       N  0.54132318  0.05809415  0.74411496    -0.24000
Co1417     Co  0.49632020  0.05605638  0.70104400     0.74100
C1418       C  0.90863257  0.55658255  0.75737835     0.44600
N1419       N  0.90545086  0.42806603  0.71487505     0.03000
N1420       N  0.45476346  0.03639061  0.75329951     0.03100
N1421       N  0.59438364  0.08332007  0.62911211    -0.44800
H1422       H  0.60968285  0.47835971  0.70801066     0.08900
N1423       N  0.55878832  0.03572611  0.73740248     0.03400
N1424       N  0.94231376  0.04532271  0.66698815     0.03200
C1425       C  0.89658944  0.06070802  0.65148509     0.44800
N1426       N  0.93008483  0.41294336  0.71816567    -0.23400
C1427       C  0.57137919  0.96562008  0.59887057    -0.04400
N1428       N  0.52880525  0.40632303  0.69803037    -0.44600
N1429       N  0.93389379  0.07421140  0.65950328    -0.44800
C1430       C  0.00696483  0.95685784  0.54039400     0.44500
N1431       N  0.56069543  0.05742672  0.64261981     0.03400
N1432       N  0.92765662  0.41721321  0.61734085    -0.23500
N1433       N  0.55184617  0.46718580  0.69409133    -0.24000
N1434       N  0.91248763  0.44173915  0.61518434     0.03000
H1435       H  0.90112174  0.35838922  0.60647015     0.08900
H1436       H  0.85297972  0.00089122  0.66160848     0.09000
N1437       N  0.53569190  0.07235415  0.64724030    -0.24000
N1438       N  0.92316680  0.51216991  0.72567349    -0.23600
N1439       N  0.01557593  0.43469566  0.61804226     0.03400
C1440       C  0.60202807  0.08421464  0.76670729     0.44800
C1441       C  0.91396730  0.38007065  0.73984655    -0.04900
N1442       N  0.91225823  0.01357316  0.66643590    -0.23600
H1443       H  0.86463233  0.49840599  0.74393668     0.09000
N1444       N  0.59395313  0.04984798  0.75161556    -0.44800
H1445       H  0.92545974  0.35924295  0.73756908     0.08900
C1446       C  0.87100589  0.39432519  0.58096249     0.44600
C1447       C  0.58028975  0.45915217  0.70907770    -0.04400
Co1448     Co  0.97091152  0.42292006  0.66672470     0.73800
N1449       N  0.87110057  0.40418762  0.72885866    -0.44600
C1450       C  0.58969381  0.11528537  0.62063595     0.44900
N1451       N  0.02196265  0.40984975  0.59179721    -0.44600
Co1452     Co  0.91776479  0.47562782  0.67108021     0.73900
C1453       C  0.88201037  0.02050507  0.65654819    -0.04900
C1454       C  0.56680372  0.08963589  0.76260134    -0.04400
N1455       N  0.54303088  0.97096717  0.62032547    -0.24000
N1456       N  0.45644278  0.04555049  0.79802534    -0.44700
H1457       H  0.53898550  0.12736720  0.64097402     0.08900
C1458       C  0.90213762  0.38564522  0.59873563    -0.04900
Cl1459     Cl  0.97963690  0.98491987  0.68427435    -0.47900
C1460       C  0.87431071  0.37312835  0.74513885     0.44700
H1461       H  0.60100021  0.98345035  0.60217046     0.08900
N1462       N  0.88030786  0.42975170  0.59277635    -0.44600
C1463       C  0.67399219  0.31083895  0.83185966     0.32100
C1464       C  0.68011837  0.30990983  0.93032182     0.32100
C1465       C  0.64669315  0.32333723  0.86166124    -0.04100
C1466       C  0.66750782  0.27319797  0.85567419    -0.04900
C1467       C  0.71240769  0.33599440  0.85176237    -0.04800
C1468       C  0.65003061  0.32184628  0.91127868    -0.04100
C1469       C  0.67024185  0.27242800  0.90530765    -0.04900
C1470       C  0.71523022  0.33581516  0.90152673    -0.04800
C1471       C  0.63441148  0.34379741  0.93161910    -0.30200
N1472       N  0.62210684  0.35997372  0.89754984     0.16300
C1473       C  0.62978610  0.34828607  0.85472956    -0.30200
H1474       H  0.62592269  0.35914672  0.82096709     0.18300
C1475       C  0.65286515  0.23541776  0.91915100    -0.29200
N1476       N  0.64152173  0.21403415  0.88011475     0.15100
C1477       C  0.64952771  0.23691041  0.84163440    -0.29100
C1478       C  0.74433982  0.36863780  0.91271063    -0.29400
N1479       N  0.75999490  0.38786384  0.87236196     0.15600
H1480       H  0.75219030  0.37890138  0.94800671     0.18200
C1481       C  0.74046187  0.36876541  0.83505816    -0.29400
H1482       H  0.74429662  0.37932591  0.79905771     0.18200
H1483       H  0.63898083  0.22809538  0.80668221     0.18200
H1484       H  0.63417451  0.34925144  0.96885274     0.18300
H1485       H  0.64539233  0.22516957  0.95513380     0.18200
C1486       C  0.66635848  0.32147507  0.58047600     0.32100
C1487       C  0.67139173  0.31134984  0.67823405     0.32100
C1488       C  0.64555806  0.33788716  0.61395667    -0.04100
C1489       C  0.65137538  0.28104433  0.59933634    -0.04900
C1490       C  0.70681513  0.33700493  0.60102097    -0.04800
C1491       C  0.64842951  0.33283601  0.66254292    -0.04100
C1492       C  0.65405683  0.27554550  0.64839979    -0.04900
C1493       C  0.70893239  0.33222131  0.65039831    -0.04800
C1494       C  0.62712217  0.34817236  0.68581589    -0.30200
N1495       N  0.61118169  0.36226840  0.65321285     0.16300
C1496       C  0.62183778  0.35591660  0.60929123    -0.30200
H1497       H  0.61283921  0.36371976  0.57653263     0.18300
C1498       C  0.64172700  0.23751394  0.65552049    -0.29200
N1499       N  0.63173046  0.22043237  0.61309432     0.15100
C1500       C  0.63702833  0.24668187  0.57913672    -0.29100
C1501       C  0.74640712  0.34290316  0.66041752    -0.29400
N1502       N  0.76736331  0.35342530  0.61966330     0.15600
H1503       H  0.75767566  0.34217451  0.69492373     0.18200
C1504       C  0.74367267  0.34981626  0.58316919    -0.29400
H1505       H  0.75256770  0.35598442  0.54652449     0.18200
H1506       H  0.63050532  0.24103330  0.54224368     0.18200
H1507       H  0.62264916  0.34805429  0.72368927     0.18300
H1508       H  0.63910870  0.22329658  0.68911887     0.18200
C1509       C  0.67238038  0.30984873  0.77711337    -0.11200
C1510       C  0.67261903  0.30879702  0.73286331    -0.12800
C1511       C  0.68374664  0.31242333  0.98476737    -0.11200
C1512       C  0.68598765  0.31772510  0.02835148    -0.12800
C1513       C  0.61015671  0.18149485  0.60549141    -0.14400
C1514       C  0.61882180  0.15393147  0.62279811    -0.29500
H1515       H  0.58499902  0.17415519  0.58451858     0.14700
H1516       H  0.64501420  0.15994838  0.64096816     0.15200
C1517       C  0.83030872  0.36879839  0.58204319    -0.14400
C1518       C  0.80816112  0.37033748  0.61874684    -0.29500
H1519       H  0.81812518  0.35231728  0.55131310     0.14700
H1520       H  0.82176550  0.38593627  0.64961760     0.15200
C1521       C  0.58623821  0.38009811  0.66327992    -0.14400
C1522       C  0.58836591  0.39828790  0.70376557    -0.29500
H1523       H  0.56676821  0.38048216  0.63636466     0.14700
H1524       H  0.61020930  0.40135525  0.72883789     0.15200
C1525       C  0.62099411  0.14689544  0.87187746    -0.14400
C1526       C  0.61299384  0.17668794  0.88034631    -0.29500
H1527       H  0.65029391  0.15067857  0.86847658     0.14700
H1528       H  0.58401326  0.17347264  0.88490233     0.15200
C1529       C  0.81885021  0.43333759  0.83829611    -0.14400
C1530       C  0.79125918  0.42337431  0.87183793    -0.29500
H1531       H  0.81517717  0.41754331  0.80611610     0.14700
H1532       H  0.79625543  0.43901856  0.90435488     0.15200
C1533       C  0.61211170  0.40647048  0.94614252    -0.14400
C1534       C  0.60449668  0.38551454  0.90676154    -0.29500
H1535       H  0.63511117  0.40798599  0.96842142     0.14700
H1536       H  0.58363022  0.38668722  0.88247979     0.15200
C1537       C  0.89643262  0.57247472  0.79626975    -0.16400
C1538       C  0.90875469  0.59074594  0.83058916     0.07600
C1539       C  0.96725513  0.10065007  0.87182354     0.09500
C1540       C  0.99637001  0.09928514  0.85820853    -0.17300
C1541       C  0.98266065  0.97468573  0.53331915    -0.16400
C1542       C  0.96517133  0.98951589  0.55270216     0.07600
C1543       C  0.10240894  0.48189015  0.49489744     0.09500
C1544       C  0.09549351  0.50731609  0.50887541    -0.17300
C1545       C  0.87404976  0.08190125  0.66120240    -0.14400
C1546       C  0.87831044  0.10116587  0.70118068    -0.29500
H1547       H  0.85283393  0.08061374  0.63600848     0.14700
H1548       H  0.89712121  0.09938057  0.72814645     0.15200
C1549       C  0.85185425  0.30706644  0.75937080    -0.14400
C1550       C  0.84616572  0.33480016  0.73781623    -0.29500
H1551       H  0.87225170  0.31398943  0.78747914     0.14700
H1552       H  0.82450852  0.32920609  0.71165433     0.15200
C1553       C  0.66430535  0.11201293  0.72598016    -0.14400
C1554       C  0.64123904  0.11303181  0.76192782    -0.29500
H1555       H  0.65236497  0.09373835  0.69654138     0.14700
H1556       H  0.65233059  0.13301727  0.78965636     0.15200
C1557       C  0.90858033  0.08289063  0.98368231    -0.14400
C1558       C  0.87354930  0.07586670  0.96877503    -0.29500
H1559       H  0.92426911  0.10890424  0.00115518     0.14700
H1560       H  0.87567602  0.08170993  0.46760138     0.15200
C1561       C  0.89548076  0.30000324  0.94383827    -0.14400
C1562       C  0.90543710  0.31558146  0.90044023    -0.29500
H1563       H  0.94194908  0.31516601  0.44900513     0.14700
H1564       H  0.90532796  0.29932168  0.86965715     0.15200
C1565       C  0.68342011  0.11076238  0.00388705    -0.14400
C1566       C  0.65425989  0.12082726  0.00951748    -0.29500
H1567       H  0.66688645  0.15240609  0.51331865     0.14700
H1568       H  0.65920451  0.14998654  0.01000750     0.15200
C1569       C  0.80621311  0.16123737  0.87241189    -0.11200
C1570       C  0.80310678  0.16276426  0.82883152    -0.12800
C1571       C  0.80819911  0.18392276  0.62240211    -0.11200
C1572       C  0.81339674  0.18444036  0.57852513    -0.13600
C1573       C  0.82117279  0.67694476  0.00061484     0.32100
C1574       C  0.83208093  0.68852547  0.40215170     0.32100
C1575       C  0.83118395  0.64525995  0.98135348    -0.04100
C1576       C  0.78318548  0.66902668  0.97717797    -0.04900
C1577       C  0.84801040  0.70952266  0.97011088    -0.04800
C1578       C  0.86091379  0.67912664  0.42996428    -0.04100
C1579       C  0.79448733  0.65997737  0.42277437    -0.04900
C1580       C  0.83439211  0.72457292  0.42560917    -0.04800
C1581       C  0.87702595  0.65483951  0.41820192    -0.30200
N1582       N  0.88191404  0.63821045  0.45783632     0.16300
C1583       C  0.84734797  0.62270758  0.99964336    -0.30200
H1584       H  0.85364433  0.62064045  0.03633262     0.18300
C1585       C  0.75887280  0.65004477  0.40555928    -0.29200
N1586       N  0.72410940  0.65343220  0.95468030     0.15100
C1587       C  0.74695244  0.66203096  0.99268247    -0.29100
C1588       C  0.84075685  0.76002597  0.41076668    -0.29400
N1589       N  0.88831844  0.76182521  0.93720731     0.15600
H1590       H  0.84716348  0.77067490  0.37482175     0.18200
C1591       C  0.87369902  0.74454627  0.97900466    -0.29400
H1592       H  0.88026907  0.75719256  0.01336215     0.18200
H1593       H  0.73764363  0.66063845  0.02920749     0.18200
H1594       H  0.88153424  0.64711905  0.38270511     0.18300
H1595       H  0.75258148  0.65375076  0.36931409     0.18200
C1596       C  0.83387817  0.68716811  0.24995681     0.32100
C1597       C  0.82723220  0.69110457  0.15221986     0.32100
C1598       C  0.86054217  0.67532303  0.21857571    -0.04100
C1599       C  0.79501690  0.66331386  0.22986093    -0.04900
C1600       C  0.84125619  0.72568616  0.22891012    -0.04800
C1601       C  0.85654590  0.67795611  0.16965722    -0.04100
C1602       C  0.79196977  0.66512694  0.18046190    -0.04900
C1603       C  0.83846620  0.72822288  0.17912288    -0.04800
C1604       C  0.87899410  0.66419031  0.14671422    -0.30200
N1605       N  0.89649182  0.65193767  0.17913225     0.16300
C1606       C  0.88604644  0.65886651  0.22327695    -0.30200
H1607       H  0.89482031  0.65087929  0.25605706     0.18300
C1608       C  0.76061820  0.63456133  0.16833641    -0.29200
N1609       N  0.74406302  0.61479284  0.20806278     0.15100
C1610       C  0.76498589  0.63163083  0.24577984    -0.29100
C1611       C  0.86167999  0.76463481  0.16708947    -0.29400
N1612       N  0.87657203  0.78396832  0.20680228     0.15600
H1613       H  0.86997702  0.77537723  0.13142845     0.18200
C1614       C  0.86483349  0.76024476  0.24428197    -0.29400
H1615       H  0.87599829  0.76628762  0.27940695     0.18200
H1616       H  0.76058027  0.62011136  0.28132161     0.18200
H1617       H  0.88162765  0.66241624  0.10878271     0.18300
H1618       H  0.75179032  0.62594507  0.13273024     0.18200
C1619       C  0.56682334  0.98006983  0.37824796     0.44500
N1620       N  0.51257926  0.98366983  0.38862308     0.03400
C1621       C  0.51792503  0.64802873  0.43489296    -0.04500
H1622       H  0.58324170  0.63256689  0.99337865     0.08900
C1623       C  0.93370255  0.91645580  0.02194583    -0.04800
Co1624     Co  0.52569049  0.55774049  0.36992898     0.74200
N1625       N  0.57895131  0.59647631  0.44029875    -0.24000
Co1626     Co  0.53045796  0.58384742  0.48173373     0.74100
C1627       C  0.92944023  0.93394116  0.06429805     0.44600
N1628       N  0.90974407  0.93685250  0.46442557     0.03000
N1629       N  0.54764654  0.55142561  0.52416947     0.03100
N1630       N  0.52183191  0.63356178  0.35861243    -0.44800
H1631       H  0.59613883  0.04370276  0.37306852     0.08900
N1632       N  0.57755837  0.58418923  0.39718791     0.03400
N1633       N  0.96772538  0.55643748  0.48117554     0.03200
C1634       C  0.91744986  0.56551965  0.49244525     0.44800
N1635       N  0.93413706  0.92127713  0.46241351    -0.23400
C1636       C  0.44850460  0.55229938  0.33305575    -0.04400
N1637       N  0.52988081  0.96044979  0.38877046    -0.44600
N1638       N  0.95363390  0.58163391  0.47765426    -0.44800
C1639       C  0.91936834  0.48672684  0.31769747     0.44500
N1640       N  0.51615515  0.60490422  0.38714758     0.03400
N1641       N  0.92531880  0.92827275  0.36381017    -0.23500
N1642       N  0.53523153  0.01823947  0.37781816    -0.24000
N1643       N  0.91029858  0.95304026  0.36663544     0.03000
H1644       H  0.89792713  0.86950794  0.35014880     0.08900
H1645       H  0.88379597  0.50472047  0.51693574     0.09000
N1646       N  0.51463542  0.61305720  0.43200144    -0.24000
N1647       N  0.93174825  0.02279097  0.47826319    -0.23600
N1648       N  0.01441809  0.94418609  0.35596657     0.03400
C1649       C  0.63529195  0.62001788  0.40520575     0.44800
C1650       C  0.91857509  0.88694859  0.48026748    -0.04900
N1651       N  0.94326700  0.52408054  0.49758104    -0.23600
H1652       H  0.90957041  0.89736898  0.00333988     0.09000
N1653       N  0.61055999  0.59791522  0.37435308    -0.44800
H1654       H  0.92991142  0.86636502  0.47386821     0.08900
C1655       C  0.86410056  0.90517304  0.33982913     0.44600
C1656       C  0.57042067  0.01883410  0.37267143    -0.04400
Co1657     Co  0.97214998  0.93276707  0.40772138     0.73800
N1658       N  0.87572456  0.91190654  0.47841407    -0.44600
C1659       C  0.52360820  0.66217202  0.38600091     0.44900
N1660       N  0.01941093  0.91730055  0.33236021    -0.44600
Co1661     Co  0.92098376  0.98652719  0.42369933     0.73900
C1662       C  0.91012834  0.52708188  0.50591274    -0.04900
C1663       C  0.61417211  0.61997035  0.44851150    -0.04400
N1664       N  0.47015837  0.53487038  0.34801237    -0.24000
N1665       N  0.47424618  0.58646050  0.01297794    -0.44700
H1666       H  0.52518260  0.66373318  0.46705995     0.08900
C1667       C  0.89734230  0.89665061  0.34826889    -0.04900
Cl1668     Cl  0.99475229  0.50173704  0.42588992    -0.47900
C1669       C  0.87935056  0.87966318  0.48886806     0.44700
H1670       H  0.45911373  0.58147840  0.32403340     0.08900
N1671       N  0.87539974  0.94081375  0.35152310    -0.44600
C1672       C  0.57135101  0.93749045  0.08064183     0.44500
N1673       N  0.53369988  0.96493646  0.08807771     0.03400
C1674       C  0.57756125  0.61493985  0.23088693    -0.04500
H1675       H  0.61600433  0.55355062  0.29120855     0.08900
C1676       C  0.03804250  0.99360026  0.27771391    -0.04800
Co1677     Co  0.57864340  0.53705399  0.13315328     0.74200
N1678       N  0.58551332  0.52198969  0.23393462    -0.24000
Co1679     Co  0.53439710  0.53040705  0.24038614     0.74100
C1680       C  0.07714915  0.01773620  0.27391252     0.44600
N1681       N  0.96387122  0.93928293  0.25022673     0.03000
N1682       N  0.50039021  0.47896351  0.27278466     0.03100
N1683       N  0.61091558  0.61812497  0.16342737    -0.44800
H1684       H  0.62053254  0.98690431  0.11122565     0.08900
N1685       N  0.60003825  0.52056166  0.19136743     0.03400
N1686       N  0.98165715  0.57685664  0.13507757     0.03200
C1687       C  0.93840810  0.59389358  0.11241553     0.44800
N1688       N  0.97213074  0.93402377  0.20656957    -0.23400
C1689       C  0.55419137  0.58706321  0.08452563    -0.04400
N1690       N  0.53553921  0.93348216  0.07552544    -0.44600
N1691       N  0.97480228  0.60615951  0.12427805    -0.44800
C1692       C  0.08416916  0.45057247  0.09281445     0.44500
N1693       N  0.58500776  0.58410790  0.17156471     0.03400
N1694       N  0.91377916  0.95800338  0.19015684    -0.23500
N1695       N  0.56646248  0.98910421  0.10235174    -0.24000
N1696       N  0.91075075  0.97095808  0.23173507     0.03000
H1697       H  0.87292640  0.92117739  0.14377298     0.08900
H1698       H  0.89382087  0.53497669  0.11890303     0.09000
N1699       N  0.56562750  0.58150586  0.21091422    -0.24000
N1700       N  0.01810377  0.01382525  0.28697101    -0.23600
N1701       N  0.95761871  0.00898017  0.12216910     0.03400
C1702       C  0.64845224  0.53806030  0.23585359     0.44800
C1703       C  0.96525796  0.89856315  0.19966641    -0.04900
N1704       N  0.95151229  0.54541748  0.13048681    -0.23600
H1705       H  0.02717258  0.96559789  0.26588048     0.09000
N1706       N  0.63650739  0.52838395  0.19182374    -0.44800
H1707       H  0.96367042  0.88682404  0.16500284     0.08900
C1708       C  0.85438286  0.94472987  0.20772958     0.44600
C1709       C  0.59223373  0.97471432  0.09784090    -0.04400
Co1710     Co  0.96586529  0.96828984  0.15887473     0.73800
N1711       N  0.94908935  0.90713367  0.27390318    -0.44600
C1712       C  0.60751896  0.63906890  0.19911742     0.44900
N1713       N  0.92574687  0.01274100  0.12951972    -0.44600
Co1714     Co  0.96145730  0.99205762  0.26587002     0.73900
C1715       C  0.92332286  0.55358453  0.11494999    -0.04900
C1716       C  0.61486080  0.53480050  0.26327068    -0.04400
N1717       N  0.55153083  0.55211560  0.08012823    -0.24000
N1718       N  0.47409442  0.47794474  0.30358683    -0.44700
H1719       H  0.56869340  0.62076691  0.26524982     0.08900
C1720       C  0.87960584  0.93937670  0.17345214    -0.04900
Cl1721     Cl  0.00870548  0.51657771  0.17967704    -0.47900
C1722       C  0.94823643  0.87994459  0.24388766     0.44700
H1723       H  0.57985496  0.61123572  0.08973169     0.08900
N1724       N  0.87512550  0.96316873  0.24465722    -0.44600
C1725       C  0.66216899  0.84888523  0.34035995     0.32100
C1726       C  0.66507488  0.85120451  0.43906231     0.32100
C1727       C  0.65220359  0.87984525  0.36425351    -0.04100
C1728       C  0.63541128  0.81404077  0.36785573    -0.04900
C1729       C  0.70062170  0.85543880  0.36209634    -0.04800
C1730       C  0.65331089  0.88080489  0.41441154    -0.04100
C1731       C  0.63699008  0.81549432  0.41719304    -0.04900
C1732       C  0.70213723  0.85680760  0.41153036    -0.04800
C1733       C  0.63285186  0.90145815  0.42829682    -0.30200
N1734       N  0.62111629  0.91470268  0.38963728     0.16300
C1735       C  0.63199980  0.90069223  0.35071809    -0.30200
H1736       H  0.62241541  0.90204540  0.31538937     0.18300
C1737       C  0.60824970  0.78397761  0.43477763    -0.29200
N1738       N  0.58960762  0.76309707  0.39811572     0.15100
C1739       C  0.60584939  0.78106008  0.35694164    -0.29100
C1740       C  0.73942404  0.86560471  0.42263085    -0.29400
N1741       N  0.76039975  0.86898140  0.38213690     0.15600
H1742       H  0.75085983  0.87098320  0.45771211     0.18200
C1743       C  0.73688033  0.86280689  0.34498226    -0.29400
H1744       H  0.74588012  0.86600084  0.30816087     0.18200
H1745       H  0.59602999  0.77168886  0.32191389     0.18200
H1746       H  0.62427895  0.90383710  0.46431798     0.18300
H1747       H  0.60087565  0.77696796  0.47174027     0.18200
C1748       C  0.67724142  0.82677385  0.09283142     0.32100
C1749       C  0.66621339  0.83298750  0.18998223     0.32100
C1750       C  0.64178715  0.83359108  0.10821882    -0.04100
C1751       C  0.67281611  0.79335305  0.12465357    -0.04900
C1752       C  0.70877944  0.85881134  0.11866986    -0.04800
C1753       C  0.63633144  0.83648809  0.15810944    -0.04100
C1754       C  0.66742192  0.79656663  0.17342474    -0.04900
C1755       C  0.70223518  0.86154666  0.16729701    -0.04800
C1756       C  0.62011688  0.86136017  0.16384075    -0.30200
N1757       N  0.61489955  0.87338933  0.12120515     0.16300
C1758       C  0.62827714  0.85747360  0.08743287    -0.30200
H1759       H  0.63398022  0.86760938  0.05146578     0.18300
C1760       C  0.65960321  0.76255771  0.19392385    -0.29200
N1761       N  0.65991238  0.73884261  0.15937366     0.15100
C1762       C  0.66834321  0.75742964  0.11725398    -0.29100
C1763       C  0.73341664  0.88830962  0.18563238    -0.29400
N1764       N  0.75991677  0.90195229  0.15067441     0.15600
H1765       H  0.73718155  0.89484056  0.22267618     0.18200
C1766       C  0.74528260  0.88446371  0.10959338    -0.29400
H1767       H  0.76104538  0.88803994  0.07656892     0.18200
H1768       H  0.66846494  0.74495327  0.08332200     0.18200
H1769       H  0.61797400  0.87428799  0.19678684     0.18300
H1770       H  0.65235739  0.75533930  0.23081698     0.18200
C1771       C  0.66111698  0.84437103  0.28641664    -0.11200
C1772       C  0.66199968  0.83823336  0.24338803    -0.12800
C1773       C  0.66655600  0.84773752  0.49365279    -0.11200
C1774       C  0.66782022  0.84058914  0.53670889    -0.12800
C1775       C  0.64792168  0.69937144  0.16376910    -0.14400
C1776       C  0.62541684  0.67972741  0.19974891    -0.29500
H1777       H  0.65414697  0.68487141  0.13447466     0.14700
H1778       H  0.61745100  0.69342851  0.22839143     0.15200
C1779       C  0.81384591  0.93368975  0.20115643    -0.14400
C1780       C  0.79925642  0.92400097  0.15771674    -0.29500
H1781       H  0.79625230  0.93085823  0.23239489     0.14700
H1782       H  0.81808523  0.92912580  0.12709052     0.15200
C1783       C  0.60767500  0.90576871  0.11460188    -0.14400
C1784       C  0.58149311  0.90563642  0.08479434    -0.29500
H1785       H  0.62147142  0.92930825  0.13733312     0.14700
H1786       H  0.56516090  0.88041351  0.06610466     0.15200
C1787       C  0.54837262  0.70098693  0.37266577    -0.14400
C1788       C  0.55785292  0.72807256  0.40469128    -0.29500
H1789       H  0.56233090  0.70632420  0.33809653     0.14700
H1790       H  0.54403314  0.72220116  0.43933803     0.15200
C1791       C  0.82310504  0.87974355  0.34522034    -0.14400
C1792       C  0.80144355  0.88547567  0.38007649    -0.29500
H1793       H  0.81028691  0.85894217  0.31867527     0.14700
H1794       H  0.81564242  0.90487173  0.40767289     0.15200
C1795       C  0.59709421  0.96445598  0.37545173    -0.14400
C1796       C  0.59185717  0.92959331  0.39099968    -0.29500
H1797       H  0.62471599  0.98257277  0.36114474     0.14700
H1798       H  0.56484760  0.91241426  0.40776897     0.15200
C1799       C  0.10311636  0.00695695  0.24744917    -0.16400
C1800       C  0.10894174  0.98006860  0.23716994     0.07600
C1801       C  0.89034295  0.52819046  0.35547739     0.09500
C1802       C  0.89617770  0.50174079  0.34301598    -0.17300
C1803       C  0.09454509  0.43459492  0.05251411    -0.16400
C1804       C  0.07972496  0.41351728  0.02130468     0.07600
C1805       C  0.87842196  0.96166682  0.05681947     0.09500
C1806       C  0.89703915  0.94357262  0.06209227    -0.17300
C1807       C  0.91490521  0.61348806  0.12670327    -0.14400
C1808       C  0.92029435  0.63304289  0.16700198    -0.29500
H1809       H  0.89052243  0.60900675  0.10544163     0.14700
H1810       H  0.94242793  0.63439943  0.19076632     0.15200
C1811       C  0.90487588  0.82160215  0.20665700    -0.14400
C1812       C  0.91877878  0.84120313  0.24637192    -0.29500
H1813       H  0.91467789  0.83446045  0.17226589     0.14700
H1814       H  0.90769137  0.82939473  0.28096569     0.15200
C1815       C  0.71149958  0.58015572  0.20724419    -0.14400
C1816       C  0.68639883  0.56759575  0.24360368    -0.29500
H1817       H  0.70476510  0.56621650  0.17352812     0.14700
H1818       H  0.69183580  0.58206402  0.27695146     0.15200
C1819       C  0.89197148  0.58496596  0.49013162    -0.14400
C1820       C  0.90018453  0.61297990  0.45836525    -0.29500
H1821       H  0.86819576  0.57770117  0.51486275     0.14700
H1822       H  0.86175297  0.55362649  0.94319894     0.15200
C1823       C  0.85383727  0.82056896  0.44721726    -0.14400
C1824       C  0.84999739  0.84131514  0.48311424    -0.29500
H1825       H  0.91449175  0.81674999  0.96587978     0.14700
H1826       H  0.83116773  0.82789290  0.51275739     0.15200
C1827       C  0.69558077  0.63708108  0.44147235    -0.14400
C1828       C  0.67552732  0.62852785  0.40220277    -0.29500
H1829       H  0.66991621  0.62142824  0.92405090     0.14700
H1830       H  0.68778559  0.62495529  0.36880818     0.15200
C1831       C  0.83562796  0.68823997  0.34795823    -0.11200
C1832       C  0.83607797  0.68667970  0.30407137    -0.12800
C1833       C  0.82405828  0.68922262  0.09786584    -0.11200
C1834       C  0.82257547  0.68363493  0.05441403    -0.13600
C1835       C  0.82350743  0.68632447  0.49989291     0.32100
C1836       C  0.81874920  0.66777566  0.90216413     0.32100
C1837       C  0.85628045  0.67742396  0.48006824    -0.04100
C1838       C  0.79036632  0.65875995  0.47282550    -0.04900
C1839       C  0.82996050  0.72352485  0.47494610    -0.04800
C1840       C  0.82966313  0.64032595  0.93177717    -0.04100
C1841       C  0.78207157  0.66450512  0.92788864    -0.04900
C1842       C  0.84698681  0.70519982  0.92072965    -0.04800
C1843       C  0.84416512  0.61420682  0.92239610    -0.30200
N1844       N  0.85502622  0.60387981  0.96364409     0.16300
C1845       C  0.86875767  0.65095358  0.49535924    -0.30200
H1846       H  0.86638917  0.64019063  0.53095966     0.18300
C1847       C  0.74533338  0.65501621  0.91523573    -0.29200
N1848       N  0.73401842  0.64218723  0.44248171     0.15100
C1849       C  0.75279302  0.64766554  0.48311350    -0.29100
C1850       C  0.87232467  0.73822590  0.90129287    -0.29400
N1851       N  0.84010626  0.78054519  0.44901844     0.15600
H1852       H  0.87730603  0.74500783  0.86398253     0.18200
C1853       C  0.83347532  0.75846371  0.48842130    -0.29400
H1854       H  0.83348477  0.76760464  0.52438403     0.18200
H1855       H  0.74063203  0.64873714  0.51759401     0.18200
H1856       H  0.84812551  0.60463009  0.88779803     0.18300
H1857       H  0.73429591  0.64734101  0.88023504     0.18200
C1858       C  0.81180396  0.66696338  0.74909706     0.32100
C1859       C  0.80949183  0.67633842  0.65136783     0.32100
C1860       C  0.82846920  0.64486004  0.71699220    -0.04100
C1861       C  0.77212984  0.65629785  0.72793774    -0.04900
C1862       C  0.83238887  0.70691202  0.72889405    -0.04800
C1863       C  0.82684563  0.65027005  0.66820989    -0.04100
C1864       C  0.77102764  0.66079697  0.67850280    -0.04900
C1865       C  0.83150197  0.71139263  0.67922182    -0.04800
C1866       C  0.84299684  0.63009821  0.64484367    -0.30200
N1867       N  0.85517323  0.61220818  0.67684868     0.16300
C1868       C  0.84610715  0.62039135  0.72113213    -0.30200
H1869       H  0.85238558  0.60988949  0.75376932     0.18300
C1870       C  0.73373611  0.65068965  0.66751332    -0.29200
N1871       N  0.71220316  0.64073275  0.70799771     0.15100
C1872       C  0.73530979  0.64404909  0.74502322    -0.29100
C1873       C  0.83597091  0.74730767  0.67077717    -0.29400
N1874       N  0.84009320  0.76508211  0.71226641     0.15600
H1875       H  0.83399852  0.75910687  0.63679573     0.18200
C1876       C  0.83703247  0.74064482  0.74788263    -0.29400
H1877       H  0.83626714  0.74612849  0.78517700     0.18200
H1878       H  0.72604904  0.63709708  0.78148379     0.18200
H1879       H  0.84519530  0.62812410  0.60701318     0.18300
H1880       H  0.72291215  0.65029109  0.63246718     0.18200
C1881       C  0.57405740  0.91296105  0.97477093     0.44500
N1882       N  0.52828426  0.93042414  0.97908018     0.03400
C1883       C  0.55300584  0.60778507  0.85906679    -0.04500
H1884       H  0.62331642  0.63531796  0.48072229     0.08900
C1885       C  0.90694820  0.02692903  0.50854742    -0.04800
Co1886     Co  0.56758150  0.51638960  0.91304829     0.74200
N1887       N  0.56412156  0.57526160  0.97309857    -0.24000
Co1888     Co  0.51221629  0.56405250  0.93945853     0.74100
C1889       C  0.93075392  0.05549264  0.54012547     0.44600
N1890       N  0.95069330  0.91387205  0.90890703     0.03000
N1891       N  0.47986341  0.55687349  0.99979311     0.03100
N1892       N  0.59981767  0.58817595  0.85462143    -0.44800
H1893       H  0.61585796  0.97078673  0.95268108     0.08900
N1894       N  0.58298824  0.55415308  0.96641246     0.03400
N1895       N  0.95368048  0.52582682  0.00767010     0.03200
C1896       C  0.91286406  0.55029359  0.00428144     0.44800
N1897       N  0.97324639  0.91798636  0.87197520    -0.23400
C1898       C  0.55927290  0.47824622  0.81493210    -0.04400
N1899       N  0.53665980  0.90111234  0.98207709    -0.44600
N1900       N  0.94884673  0.55689828  0.01542035    -0.44800
C1901       C  0.99260310  0.57761714  0.82563993     0.44500
N1902       N  0.56803988  0.56107439  0.87084527     0.03400
N1903       N  0.94203232  0.96723212  0.84413760    -0.23500
N1904       N  0.55873087  0.96152852  0.97134819    -0.24000
N1905       N  0.92632119  0.97449745  0.88186715     0.03000
H1906       H  0.91874930  0.91548365  0.81347717     0.08900
H1907       H  0.86845051  0.49771711  0.97335609     0.09000
N1908       N  0.54131098  0.57341371  0.87679059    -0.24000
N1909       N  0.96229945  0.94329291  0.99887302    -0.23600
N1910       N  0.02186283  0.02807808  0.82929574     0.03400
C1911       C  0.62386861  0.60340988  0.99721432     0.44800
C1912       C  0.97085971  0.88459865  0.85815196    -0.04900
N1913       N  0.92308878  0.49950344  0.99110503    -0.23600
H1914       H  0.87823322  0.00669474  0.51450400     0.09000
N1915       N  0.61815001  0.56977889  0.98040273    -0.44800
H1916       H  0.98417133  0.87907328  0.82691823     0.08900
C1917       C  0.87830072  0.93612294  0.84646220     0.44600
C1918       C  0.58899126  0.95302661  0.96891294    -0.04400
Co1919     Co  0.99802079  0.97075358  0.84539868     0.73800
N1920       N  0.93326774  0.87892429  0.92279137    -0.44600
C1921       C  0.59248367  0.61864711  0.84709084     0.44900
N1922       N  0.99895136  0.04489668  0.82370394    -0.44600
Co1923     Co  0.94466003  0.95936373  0.94057366     0.73900
C1924       C  0.89566383  0.51204850  0.98897043    -0.04900
C1925       C  0.58833115  0.60760001  0.99088320    -0.04400
N1926       N  0.54900229  0.47705881  0.86027751    -0.24000
N1927       N  0.58367318  0.55742872  0.51554486    -0.44700
H1928       H  0.54010310  0.62655186  0.86889504     0.08900
C1929       C  0.91379320  0.93919690  0.82379694    -0.04900
Cl1930     Cl  0.98892120  0.49427880  0.92700509    -0.47900
C1931       C  0.94476429  0.85893283  0.89287606     0.44700
H1932       H  0.57849095  0.50306606  0.79662223     0.08900
N1933       N  0.88904770  0.95972041  0.88194846    -0.44600
C1934       C  0.55035631  0.90546730  0.73038427     0.44500
N1935       N  0.51032552  0.92606182  0.70545075     0.03400
C1936       C  0.55212798  0.61425784  0.61212497    -0.04500
H1937       H  0.57284212  0.62519147  0.74588978     0.08900
C1938       C  0.89651453  0.00521098  0.78567606    -0.04800
Co1939     Co  0.55733905  0.51487964  0.65847772     0.74200
N1940       N  0.55020406  0.56797495  0.72487558    -0.24000
Co1941     Co  0.50256091  0.56330454  0.68560071     0.74100
C1942       C  0.91172034  0.04452893  0.79724721     0.44600
N1943       N  0.90710294  0.91648033  0.73140764     0.03000
N1944       N  0.46464921  0.54432148  0.74172090     0.03100
N1945       N  0.59707476  0.59194670  0.60681766    -0.44800
H1946       H  0.59810217  0.96361494  0.72644654     0.08900
N1947       N  0.56748811  0.54568318  0.71741392     0.03400
N1948       N  0.95893837  0.55162663  0.62893529     0.03200
C1949       C  0.91592039  0.57107005  0.61097410     0.44800
N1950       N  0.93339468  0.90347857  0.72573370    -0.23400
C1951       C  0.57930418  0.47374152  0.58731917    -0.04400
N1952       N  0.51479824  0.89530585  0.71551850    -0.44600
N1953       N  0.95304050  0.58169625  0.61869823    -0.44800
C1954       C  0.05962681  0.42314632  0.58218463     0.44500
N1955       N  0.56427744  0.56540719  0.62176411     0.03400
N1956       N  0.92043407  0.91593704  0.62901961    -0.23500
N1957       N  0.54131532  0.95625313  0.71216912    -0.24000
N1958       N  0.90258448  0.93749743  0.63844050     0.03000
H1959       H  0.90272945  0.86485487  0.59045639     0.08900
H1960       H  0.86964919  0.51323877  0.62210928     0.09000
N1961       N  0.53857387  0.57926386  0.62783040    -0.24000
N1962       N  0.92330123  0.00042280  0.75843088    -0.23600
N1963       N  0.00352274  0.93748775  0.61016083     0.03400
C1964       C  0.61029104  0.59261142  0.74988175     0.44800
C1965       C  0.92074088  0.86901212  0.74346770    -0.04900
N1966       N  0.92744846  0.52116875  0.62742836    -0.23600
H1967       H  0.86695121  0.98652296  0.78658866     0.09000
N1968       N  0.60235078  0.55892065  0.73251885    -0.44800
H1969       H  0.93280568  0.84941946  0.73437287     0.08900
C1970       C  0.86584253  0.89842336  0.59042913     0.44600
C1971       C  0.56824109  0.94589697  0.72703916    -0.04400
Co1972     Co  0.96843936  0.92009382  0.66784733     0.73800
N1973       N  0.87501458  0.89026312  0.74814283    -0.44600
C1974       C  0.59162595  0.62370888  0.60002158     0.44900
N1975       N  0.99048562  0.92677417  0.56799939    -0.44600
Co1976     Co  0.91172331  0.96661258  0.69908154     0.73900
C1977       C  0.89920608  0.53076607  0.61564226    -0.04900
C1978       C  0.57559044  0.59897096  0.74447480    -0.04400
N1979       N  0.54955602  0.48028902  0.60198459    -0.24000
N1980       N  0.46770655  0.55728112  0.78489315    -0.44700
H1981       H  0.53951355  0.63312253  0.62241078     0.08900
C1982       C  0.89870810  0.88965621  0.59947089    -0.04900
Cl1983     Cl  0.98507452  0.48911910  0.67370063    -0.47900
C1984       C  0.88196829  0.86009116  0.75864337     0.44700
H1985       H  0.60842858  0.49134844  0.59436175     0.08900
N1986       N  0.87094821  0.92854195  0.61575181    -0.44600
C1987       C  0.67914072  0.81607988  0.84056145     0.32100
C1988       C  0.68312844  0.81422318  0.93993579     0.32100
C1989       C  0.65794478  0.83582045  0.86940398    -0.04100
C1990       C  0.66388040  0.77747202  0.86511366    -0.04900
C1991       C  0.71899740  0.83393850  0.86179006    -0.04800
C1992       C  0.66050866  0.83402572  0.91880258    -0.04100
C1993       C  0.66531859  0.77625713  0.91498354    -0.04900
C1994       C  0.72081007  0.83325012  0.91168531    -0.04800
C1995       C  0.64325716  0.85417947  0.93894586    -0.30200
N1996       N  0.62917937  0.86861052  0.90488644     0.16300
C1997       C  0.63835971  0.85830611  0.86190666    -0.30200
H1998       H  0.63180973  0.86685744  0.82805970     0.18300
C1999       C  0.64865982  0.73914074  0.92811238    -0.29200
N2000       N  0.63852643  0.71830194  0.88844305     0.15100
C2001       C  0.64750194  0.74141121  0.85004017    -0.29100
C2002       C  0.75707344  0.85630317  0.92294169    -0.29400
N2003       N  0.77752250  0.87037845  0.88244499     0.15600
H2004       H  0.76732918  0.86407143  0.95825271     0.18200
C2005       C  0.75461170  0.85714352  0.84495439    -0.29400
H2006       H  0.76235574  0.86603253  0.80856110     0.18200
H2007       H  0.64126440  0.73267725  0.81389124     0.18200
H2008       H  0.64260395  0.85937194  0.97611871     0.18300
H2009       H  0.64394617  0.72805126  0.96389458     0.18200
C2010       C  0.66990316  0.83150301  0.58990025     0.32100
C2011       C  0.67358580  0.81769479  0.68675515     0.32100
C2012       C  0.64501116  0.84266831  0.62397079    -0.04100
C2013       C  0.65895029  0.79054762  0.60523183    -0.04900
C2014       C  0.70912135  0.85010181  0.61221717    -0.04800
C2015       C  0.64710124  0.83555377  0.67210774    -0.04100
C2016       C  0.66064829  0.78318673  0.65402937    -0.04900
C2017       C  0.71080577  0.84331661  0.66158958    -0.04800
C2018       C  0.62387004  0.84797412  0.69638765    -0.30200
N2019       N  0.60752571  0.86259070  0.66489108     0.16300
C2020       C  0.62018324  0.85955333  0.62061273    -0.30200
H2021       H  0.61243537  0.86957274  0.58854478     0.18300
C2022       C  0.64699294  0.74484907  0.65890531    -0.29200
N2023       N  0.63782617  0.72924337  0.61543731     0.15100
C2024       C  0.64458246  0.75692380  0.58300473    -0.29100
C2025       C  0.74643856  0.84500795  0.66903429    -0.29400
N2026       N  0.76647933  0.85271685  0.62780881     0.15600
H2027       H  0.75609622  0.83792671  0.70180187     0.18200
C2028       C  0.74392354  0.85504016  0.59300011    -0.29400
H2029       H  0.75082033  0.85686922  0.55560001     0.18200
H2030       H  0.63683822  0.75269419  0.54628730     0.18200
H2031       H  0.62019422  0.84711771  0.73436691     0.18300
H2032       H  0.64127793  0.72939883  0.69199343     0.18200
C2033       C  0.67702507  0.81548218  0.78568645    -0.11200
C2034       C  0.67544044  0.81436465  0.74141161    -0.12800
C2035       C  0.68380141  0.81649122  0.99505160    -0.11200
C2036       C  0.68202674  0.82135516  0.03880943    -0.12800
C2037       C  0.61166676  0.69163648  0.60711240    -0.14400
C2038       C  0.62123059  0.66214305  0.60614257    -0.29500
H2039       H  0.58310694  0.68778928  0.59894869     0.14700
H2040       H  0.65029216  0.66614980  0.61151617     0.15200
C2041       C  0.82676549  0.87167205  0.58489055    -0.14400
C2042       C  0.80553501  0.85834598  0.62432465    -0.29500
H2043       H  0.81359469  0.87344850  0.55214371     0.14700
H2044       H  0.81984772  0.85881815  0.65717525     0.15200
C2045       C  0.58319900  0.88097572  0.67600247    -0.14400
C2046       C  0.57138668  0.88292645  0.72044137    -0.29500
H2047       H  0.57524404  0.89485798  0.64757924     0.14700
H2048       H  0.57825447  0.86953298  0.75008765     0.15200
C2049       C  0.62047081  0.65744319  0.85225364    -0.14400
C2050       C  0.61715295  0.67867159  0.88785533    -0.29500
H2051       H  0.64216980  0.66964808  0.82502433     0.14700
H2052       H  0.59686251  0.66588101  0.91653939     0.15200
C2053       C  0.83989467  0.90558572  0.84497926    -0.14400
C2054       C  0.81529278  0.89913195  0.88182757    -0.29500
H2055       H  0.83155225  0.88807361  0.81443050     0.14700
H2056       H  0.82448727  0.91538195  0.91359777     0.15200
C2057       C  0.59087196  0.88800086  0.95729049    -0.14400
C2058       C  0.60995222  0.89237488  0.91552873    -0.29500
H2059       H  0.58566465  0.86368410  0.97930392     0.14700
H2060       H  0.61192018  0.91429675  0.89076506     0.15200
C2061       C  0.90678825  0.06132530  0.84014656    -0.16400
C2062       C  0.92781109  0.08368367  0.86650245     0.07600
C2063       C  0.94430276  0.60319534  0.85107083     0.09500
C2064       C  0.97275719  0.59818725  0.84578500    -0.17300
C2065       C  0.07512170  0.42273234  0.53575768    -0.16400
C2066       C  0.09209135  0.44389859  0.50419587     0.07600
C2067       C  0.95016857  0.01059803  0.57767552     0.09500
C2068       C  0.93817155  0.03400873  0.57492690    -0.17300
C2069       C  0.89637387  0.59494701  0.62510043    -0.14400
C2070       C  0.87370663  0.58817082  0.66426905    -0.29500
H2071       H  0.90309510  0.62030839  0.60462366     0.14700
H2072       H  0.86903124  0.56422111  0.68657173     0.15200
C2073       C  0.84967645  0.80423004  0.71526113    -0.14400
C2074       C  0.85371959  0.82178758  0.75653419    -0.29500
H2075       H  0.85979371  0.82086792  0.68301332     0.14700
H2076       H  0.84437323  0.80642233  0.78958770     0.15200
C2077       C  0.67139253  0.62412854  0.70875821    -0.14400
C2078       C  0.64989160  0.62051532  0.74814195    -0.29500
H2079       H  0.65748214  0.61176929  0.67635005     0.14700
H2080       H  0.66285680  0.63294891  0.78075851     0.15200
C2081       C  0.89764016  0.57926117  0.99921107    -0.14400
C2082       C  0.87086776  0.57648260  0.96775410    -0.29500
H2083       H  0.90952705  0.60392273  0.02048836     0.14700
H2084       H  0.92226681  0.61745860  0.43167333     0.15200
C2085       C  0.91173770  0.80067394  0.93397967    -0.14400
C2086       C  0.92824348  0.81829186  0.89362022    -0.29500
H2087       H  0.87231937  0.83475770  0.41755970     0.14700
H2088       H  0.92815503  0.80337247  0.86153501     0.15200
C2089       C  0.68348568  0.63642693  0.95535537    -0.14400
C2090       C  0.66194388  0.63353881  0.99435693    -0.29500
H2091       H  0.68232098  0.63881850  0.47496540     0.14700
H2092       H  0.67369987  0.64887855  0.02598700     0.15200
C2093       C  0.81658032  0.66425148  0.84761152    -0.11200
C2094       C  0.81410871  0.66379664  0.80352007    -0.12800
C2095       C  0.81172710  0.68126061  0.59735932    -0.11200
C2096       C  0.81733227  0.68435031  0.55381543    -0.13600
loop_ 
_geom_bond_atom_site_label_1 
_geom_bond_atom_site_label_2 
_geom_bond_distance 
_geom_bond_site_symmetry_2 
_ccdc_geom_bond_type 
C1            C3   1.542   1_554  S
C1            C5   1.546       .  S
C1            C4   1.548       .  S
C1          C262   1.539       .  S
C2            C6   1.533       .  S
C2            C8   1.548       .  S
C2            C7   1.570       .  S
C2          C259   1.560       .  S
C3           C11   1.377       .  A
C3          C268   1.406       .  A
C4           C15   1.385       .  A
C4          C269   1.411   1_554  A
C5           C19   1.379       .  A
C5          C270   1.412   1_554  A
C6            C9   1.373       .  A
C6          C265   1.405       .  A
C7           C13   1.393       .  A
C7          C266   1.424       .  A
C8           C16   1.376       .  A
C8          C267   1.408       .  A
C9           N10   1.356       .  A
C9           H22   1.083       .  S
N10         C273   1.359       .  A
N10         C248   1.433       .  S
C11         N272   1.358       .  A
C11          H12   1.082   1_556  S
C13         N276   1.367       .  A
C13          H23   1.083       .  S
N14          C15   1.363   1_556  A
N14         C275   1.358       .  A
N14         C517   1.439       .  S
C15          H21   1.082       .  S
C16         N279   1.361       .  A
C16          H18   1.083       .  S
N17          C19   1.362   1_556  A
N17         C278   1.362       .  A
N17         C513   1.443       .  S
C19          H20   1.082       .  S
C24          C26   1.568       .  S
C24          C28   1.556       .  S
C24          C27   1.537       .  S
C24         C260   1.559       .  S
C25          C29   1.547       .  S
C25          C31   1.521       .  S
C25          C30   1.516       .  S
C25         C261   1.540       .  S
C26          C34   1.391       .  A
C26          C29   1.421       .  A
C27          C38   1.374       .  A
C27          C30   1.400       .  A
C28          C42   1.381       .  A
C28          C31   1.411       .  A
C29          C32   1.376       .  A
C30          C36   1.361       .  A
C31          C39   1.359       .  A
C32          N33   1.359       .  A
C32          H45   1.081       .  S
N33          C34   1.367       .  A
N33         C236   1.446       .  S
C34          H35   1.082       .  S
C36          N37   1.355       .  A
C36          H46   1.081       .  S
N37          C38   1.357       .  A
N37         C243   1.428       .  S
C38          H44   1.083       .  S
C39          N40   1.353       .  A
C39          H41   1.081       .  S
N40          C42   1.366       .  A
N40         C239   1.434       .  S
C42          H43   1.082       .  S
C47          N65   1.341       .  A
C47          C84   1.473       .  S
C47         C223   1.489       .  S
N48          N65   1.322       .  A
N48          N70   1.316       .  A
N48       Co1133   2.046   1_455  S
C49          N74   1.332       .  A
C49          H94   1.082       .  S
C49          C87   1.448       .  S
H50         C353   1.080       .  S
C51         N337   1.359       .  A
C51          H80   1.081       .  S
C51          C55   1.448       .  S
Co52         N60   2.040       .  S
Co52         N92   2.079   1_545  S
Co52         N68   2.154       .  S
Co52        N594   2.059   1_545  S
Co52      Cl1144   2.470   1_445  S
N53          C91   1.355       .  A
N53          N60   1.323       .  A
N53         Co54   2.138       .  S
Co54         N57   2.046   1_455  S
Co54         N74   2.040       .  S
Co54       N1109   2.085   1_455  S
Co54      Cl1144   2.433   1_445  S
C55        N1665   1.341       .  A
C55         C234   1.435       .  S
N56          N63   1.308       .  A
N56          N86   1.329       .  A
N56         Co89   2.140       .  S
N57        N1647   1.322       .  A
N57         N355   1.319       .  A
N58          C87   1.366       .  A
N58          N68   1.338       .  A
H59          C84   1.081       .  S
N60          N81   1.323       .  A
N61          N79   1.321       .  A
N61          N66   1.320       .  A
N61       Co1102   2.052       .  S
C62          N66   1.341       .  A
C62          C90   1.458       .  S
C62         C247   1.468       .  S
N63          C78   1.336       .  A
N63         Co85   2.017       .  S
C64          N92   1.337       .  A
C64          H98   1.082       .  S
C64        C1115   1.452       .  S
C67         N612   1.330   1_545  A
C67        C1112   1.477       .  S
C67         C230   1.440       .  S
N68          N74   1.324       .  A
N69          C95   1.323       .  A
N69          N71   1.310       .  A
N69         Co85   2.039       .  S
N70          C84   1.353       .  A
N70        Co576   2.120       .  S
N71          N99   1.331       .  A
N71         Co89   2.096       .  S
H72          C95   1.081       .  S
H73          C90   1.079       .  S
N75         C313   1.342       .  A
N75        N1629   1.333       .  A
N75         Co89   2.118       .  S
N76          N88   1.317       .  A
N76        N1664   1.306       .  A
N76         Co85   2.058       .  S
C77          N81   1.341       .  A
C77          C91   1.474       .  S
C77         C256   1.498       .  S
C78          H82   1.081       .  S
C78          C97   1.459       .  S
N79          C90   1.348       .  A
N79        Co613   2.106   1_545  S
C83          N99   1.360       .  A
C83          C95   1.442       .  S
C83         C219   1.472       .  S
Co85       N1096   2.086       .  S
Co85       Cl620   2.396       .  S
N86          C97   1.359       .  A
C87         C215   1.499       .  S
N88         C591   1.334       .  A
Co89        N603   2.101       .  S
Co89       Cl620   2.417       .  S
C91         H312   1.081       .  S
N92        N1648   1.331       .  A
N93        C1627   1.354       .  A
N93         N319   1.316       .  A
Cl96      Co1100   2.459       .  S
Cl96      Co1102   2.425       .  S
Cl96       Co609   2.396   1_545  S
Cl96       Co613   2.429   1_545  S
C97         C252   1.494       .  S
C100        N118   1.345       .  A
C100        C137   1.455       .  S
C100        C212   1.470       .  S
N101        N118   1.323       .  A
N101        N123   1.323       .  A
N101      Co1186   2.062   1_455  S
C102        N127   1.331       .  A
C102        H147   1.080       .  S
C102        C140   1.469       .  S
H103        C144   1.081       .  S
C104        N128   1.344       .  A
C104        H133   1.075       .  S
C104        C108   1.423       .  S
Co105       N113   2.042       .  S
Co105       N145   2.084   1_455  S
Co105       N121   2.091       .  S
Co105       N647   2.155       .  S
Co105     Cl1197   2.452   1_455  S
N106        C144   1.333       .  A
N106        N113   1.313       .  A
N106       Co107   2.079       .  S
Co107       N110   2.039       .  S
Co107       N127   2.046       .  S
Co107      N1162   2.052   1_455  S
Co107     Cl1197   2.417   1_455  S
C108       N1718   1.350       .  A
C108        C227   1.451       .  S
N109        N116   1.315       .  A
N109        N139   1.313       .  A
N109       Co142   2.064       .  S
N110        N146   1.331       .  A
N110       N1700   1.330       .  A
N111        C140   1.349       .  A
N111        N121   1.321       .  A
H112        C137   1.082       .  S
N113        N134   1.322       .  A
N114        N132   1.322       .  A
N114        N119   1.332       .  A
N114      Co1155   2.050       .  S
C115        N119   1.350       .  A
C115        C143   1.454       .  S
C115        C235   1.497       .  S
N116        C131   1.352       .  A
N116       Co138   2.095       .  S
C117        N145   1.358       .  A
C117        H151   1.076       .  S
C117       C1168   1.472       .  S
C120        N665   1.341       .  A
C120       C1165   1.424       .  S
C120        C231   1.434       .  S
N121        N127   1.313       .  A
N122        C148   1.358       .  A
N122        N124   1.305       .  A
N122       Co138   2.166       .  S
N123        C137   1.340       .  A
N123       Co629   2.081       .  S
N124        N152   1.315       .  A
N124       Co142   1.968       .  S
H125        C148   1.066       .  S
H126        C143   1.076       .  S
N128       N1682   1.299       .  A
N128       Co142   2.046       .  S
N129        N141   1.325       .  A
N129       N1717   1.331       .  A
N129       Co138   2.115       .  S
C130        N134   1.348       .  A
C130        C144   1.451       .  S
C130        C244   1.455       .  S
C131        H135   1.078       .  S
C131        C150   1.462       .  S
N132        C143   1.353       .  A
N132       Co666   2.163   1_545  S
C136        N152   1.329       .  A
C136        C148   1.456       .  S
C136        C207   1.478       .  S
Co138      N1149   2.105       .  S
Co138      Cl673   2.415       .  S
N139        C150   1.333       .  A
C140        C204   1.465       .  S
N141        C644   1.341       .  A
Co142       N656   2.160       .  S
Co142      Cl673   2.363       .  S
N145       N1701   1.305       .  A
N146       C1680   1.326       .  A
Cl149     Co1153   2.440   1_565  S
Cl149     Co1155   2.439   1_565  S
Cl149      Co662   2.408       .  S
Cl149      Co666   2.368       .  S
C150        C240   1.463       .  S
C153        C155   1.550       .  S
C153        C157   1.546       .  S
C153        C156   1.555       .  S
C153        C199   1.544       .  S
C154        C158   1.549       .  S
C154        C160   1.528       .  S
C154        C159   1.546       .  S
C154        C201   1.539       .  S
C155        C163   1.384       .  A
C155        C158   1.414       .  A
C156        C167   1.391       .  A
C156        C159   1.408       .  A
C157        C171   1.377       .  A
C157        C160   1.406       .  A
C158        C161   1.383       .  A
C159        C165   1.378       .  A
C160        C168   1.370       .  A
C161        N162   1.361       .  A
C161        H174   1.083       .  S
N162        C163   1.357       .  A
N162        C224   1.446       .  S
C163        H164   1.081       .  S
C165        N166   1.362       .  A
C165        H175   1.083       .  S
N166        C167   1.365       .  A
N166        C216   1.447       .  S
C167        H173   1.082       .  S
C168        N169   1.353       .  A
C168        H170   1.079       .  S
N169        C171   1.363       .  A
N169        C220   1.435       .  S
C171        H172   1.083       .  S
C176        C178   1.562       .  S
C176        C180   1.542       .  S
C176        C179   1.542       .  S
C176        C464   1.549       .  S
C177        C181   1.520       .  S
C177        C183   1.532       .  S
C177        C182   1.533       .  S
C177        C200   1.547       .  S
C178        C186   1.393       .  A
C178        C181   1.406       .  A
C179        C190   1.379       .  A
C179        C182   1.433       .  A
C180        C194   1.381       .  A
C180        C183   1.412       .  A
C181        C184   1.354       .  A
C182        C188   1.370       .  A
C183        C191   1.368       .  A
C184        N185   1.348       .  A
C184        H197   1.080       .  S
N185        C186   1.370       .  A
N185        C211   1.441       .  S
C186        H187   1.081       .  S
C188        N189   1.345       .  A
C188        H198   1.083       .  S
N189        C190   1.349       .  A
N189        C203   1.424       .  S
C190        H196   1.083       .  S
C191        N192   1.356       .  A
C191        H193   1.083       .  S
N192        C194   1.358       .  A
N192        C208   1.434       .  S
C194        H195   1.082       .  S
C199        C200   1.249       .  T
C201        C202   1.246       .  T
C202        C438   1.539       .  S
C203        C204   1.336       .  D
C203        H205   1.083       .  S
C204        H206   1.086       .  S
C207        C208   1.348       .  D
C207        H209   1.085       .  S
C208        H210   1.088       .  S
C211        C212   1.354       .  D
C211        H213   1.083       .  S
C212        H214   1.084       .  S
C215        C216   1.358       .  D
C215        H217   1.085       .  S
C216        H218   1.086       .  S
C219        C220   1.354       .  D
C219        H221   1.084       .  S
C220        H222   1.087       .  S
C223        C224   1.355       .  D
C223        H225   1.085       .  S
C224        H226   1.087       .  S
C227        C228   1.211       .  T
C228        C753   1.417       .  S
C229        C230   1.211   1_565  T
C229        C752   1.420       .  S
C231        C232   1.200       .  T
C232        C757   1.399       .  S
C233        C234   1.200       .  T
C233        C756   1.400       .  S
C235        C236   1.352       .  D
C235        H237   1.086       .  S
C236        H238   1.085       .  S
C239        C240   1.352       .  D
C239        H241   1.087       .  S
C240        H242   1.083       .  S
C243        C244   1.342       .  D
C243        H245   1.085       .  S
C244        H246   1.083       .  S
C247        C248   1.342       .  D
C247        H249   1.085       .  S
C248        H512   1.088       .  S
H250        C510   1.086       .  S
C251        N279   1.448       .  S
C251        C252   1.353       .  D
C251        H515   1.085       .  S
C252        H254   1.083       .  S
H253        C513   1.087       .  S
C255        N276   1.453       .  S
C255        C256   1.360       .  D
C255        H519   1.087       .  S
C256        H258   1.083       .  S
H257        C517   1.087       .  S
C259        C260   1.258       .  T
C261        C262   1.246       .  T
C263        C265   1.542       .  S
C263        C267   1.547       .  S
C263        C266   1.548       .  S
C263        C524   1.546       .  S
C264        C268   1.530       .  S
C264        C270   1.548       .  S
C264        C269   1.541       .  S
C264        C521   1.544       .  S
C265        C273   1.375       .  A
C266        C277   1.382       .  A
C267        C281   1.387       .  A
C268        C271   1.370       .  A
C269        C275   1.368       .  A
C270        C278   1.379       .  A
C271        N272   1.356       .  A
C271        H284   1.082       .  S
N272        C510   1.431       .  S
C273        H274   1.078       .  S
C275        H285   1.083       .  S
N276        C277   1.357       .  A
C277        H283   1.083       .  S
C278        H280   1.083       .  S
N279        C281   1.365       .  A
C281        H282   1.082       .  S
C286        C288   1.556       .  S
C286        C290   1.540       .  S
C286        C289   1.544       .  S
C286        C522   1.543       .  S
C287        C291   1.539       .  S
C287        C293   1.543       .  S
C287        C292   1.552       .  S
C287        C523   1.545       .  S
C288        C296   1.390       .  A
C288        C291   1.406       .  A
C289        C300   1.377       .  A
C289        C292   1.412       .  A
C290        C304   1.376       .  A
C290        C293   1.408       .  A
C291        C294   1.375       .  A
C292        C298   1.382       .  A
C293        C301   1.376       .  A
C294        N295   1.358       .  A
C294        H307   1.078       .  S
N295        C296   1.367       .  A
N295        C498   1.451       .  S
C296        H297   1.082       .  S
C298        N299   1.363       .  A
C298        H308   1.083       .  S
N299        C300   1.358       .  A
N299        C505   1.436       .  S
C300        H306   1.083       .  S
C301        N302   1.360       .  A
C301        H303   1.083       .  S
N302        C304   1.362       .  A
N302        C501   1.442       .  S
C304        H305   1.081       .  S
C309        N327   1.358       .  A
C309        C346   1.453       .  S
C309        C485   1.494       .  S
N310        N327   1.333       .  A
N310        N332   1.317       .  A
N310      Co1395   2.117   1_455  S
C311        N336   1.341       .  A
C311        H356   1.078   1_556  S
C311        C349   1.453       .  S
C313        H342   1.072       .  S
C313        C317   1.424       .  S
Co314       N856   2.044   1_545  S
Co314       N322   2.055       .  S
Co314       N354   2.055       .  S
Co314       N330   2.090       .  S
Co314     Cl1406   2.404   1_545  S
N315        C353   1.351       .  A
N315        N322   1.329   1_554  A
N315       Co316   2.139       .  S
Co316       N319   2.158   1_445  S
Co316       N336   2.041   1_554  S
Co316      N1371   2.081   1_454  S
Co316     Cl1406   2.427   1_544  S
C317       N1927   1.332       .  A
C317        C496   1.439       .  S
N318        N325   1.321   1_554  A
N318        N348   1.336       .  A
N318       Co351   2.179   1_554  S
N319       N1909   1.309   1_554  A
N320        C349   1.345       .  A
N320        N330   1.320       .  A
H321        C346   1.080       .  S
N322        N343   1.317       .  A
N323        N341   1.323       .  A
N323        N328   1.322       .  A
N323      Co1364   2.061       .  S
C324        N328   1.347       .  A
C324        C352   1.458       .  S
C324        C509   1.464       .  S
N325        C340   1.332   1_556  A
N325       Co347   2.016       .  S
C326        N354   1.346       .  A
C326        H360   1.073       .  S
C326       C1377   1.435       .  S
C329        N874   1.332       .  A
C329       C1374   1.467       .  S
C329        C492   1.406       .  S
N330        N336   1.311       .  A
N331        C357   1.358       .  A
N331        N333   1.320       .  A
N331       Co347   2.149       .  S
N332        C346   1.340       .  A
N332       Co838   2.063       .  S
N333        N361   1.311       .  A
N333       Co351   2.022       .  S
H334        C357   1.081       .  S
H335        C352   1.082       .  S
N337       N1891   1.330   1_554  A
N337       Co351   2.112   1_554  S
N338        N350   1.312       .  A
N338       N1926   1.319       .  A
N338       Co347   2.023       .  S
C339        N343   1.337   1_554  A
C339        C353   1.464       .  S
C339        C518   1.488       .  S
C340        H344   1.082   1_554  S
C340        C359   1.442       .  S
N341        C352   1.343       .  A
N341       Co875   2.077   1_545  S
C345        N361   1.335       .  A
C345        C357   1.486       .  S
C345        C481   1.489       .  S
Co347      N1358   2.071       .  S
Co347      Cl882   2.464       .  S
N348        C359   1.353       .  A
C349        C477   1.466       .  S
N350        C853   1.336       .  A
Co351       N865   2.081       .  S
Co351      Cl882   2.449       .  S
N354       N1910   1.326       .  A
N355       C1889   1.347       .  A
Cl358     Co1362   2.444   1_565  S
Cl358     Co1364   2.426   1_565  S
Cl358      Co871   2.447       .  S
Cl358      Co875   2.456       .  S
C359        C514   1.481       .  S
C362        N380   1.347       .  A
C362        C399   1.455       .  S
C362        C474   1.486       .  S
N363        N380   1.328       .  A
N363        N385   1.325       .  A
N363      Co1448   2.087   1_455  S
C364        N389   1.335       .  A
C364        H409   1.082       .  S
C364        C402   1.449       .  S
H365        C406   1.081       .  S
C366        N390   1.329       .  A
C366        H395   1.084       .  S
C366        C370   1.453       .  S
Co367       N909   2.105   1_545  S
Co367       N375   2.039       .  S
Co367       N407   2.062   1_545  S
Co367       N383   2.145       .  S
Co367     Cl1459   2.449   1_445  S
N368        C406   1.351       .  A
N368        N375   1.326       .  A
N368       Co369   2.129   1_455  S
Co369       N372   2.069       .  S
Co369       N389   2.049   1_655  S
Co369      N1424   2.047       .  S
Co369     Cl1459   2.434   1_545  S
C370       N1980   1.352       .  A
C370        C489   1.415       .  S
N371        N378   1.318       .  A
N371        N401   1.328       .  A
N371       Co404   2.112       .  S
N372       N1962   1.329       .  A
N372        N408   1.317       .  A
N373        C402   1.361       .  A
N373        N383   1.334       .  A
H374        C399   1.082       .  S
N375        N396   1.322       .  A
N376        N394   1.325       .  A
N376        N381   1.331       .  A
N376      Co1417   2.098       .  S
C377        N381   1.348       .  A
C377        C405   1.453       .  S
C377        C497   1.488       .  S
N378        C393   1.330       .  A
N378       Co400   2.044       .  S
C379        N407   1.327       .  A
C379        H413   1.081   1_565  S
C379       C1430   1.455       .  S
C382        N927   1.357       .  A
C382       C1427   1.456       .  S
C382        C493   1.436       .  S
N383        N389   1.323       .  A
N384        C410   1.357       .  A
N384        N386   1.327       .  A
N384       Co400   2.143       .  S
N385        C399   1.344       .  A
N385       Co891   2.075       .  S
N386        N414   1.318       .  A
N386       Co404   2.051       .  S
H387        C410   1.080       .  S
H388        C405   1.082       .  S
N390       N1944   1.317       .  A
N390       Co404   2.045       .  S
N391        N403   1.336       .  A
N391       N1979   1.330       .  A
N391       Co400   2.100       .  S
C392        N396   1.341       .  A
C392        C406   1.463       .  S
C392        C506   1.485       .  S
C393        H397   1.082       .  S
C393        C412   1.449       .  S
N394        C405   1.345       .  A
N394       Co928   2.071   1_545  S
C398        N414   1.338       .  A
C398        C410   1.471       .  S
C398        C469   1.490       .  S
Co400      N1411   2.082       .  S
Co400      Cl935   2.463       .  S
N401        C412   1.358       .  A
C402        C466   1.495       .  S
N403        C906   1.356       .  A
Co404       N918   2.060       .  S
Co404      Cl935   2.449       .  S
N407       N1963   1.320       .  A
N408       C1942   1.338       .  A
Cl411     Co1415   2.459   1_565  S
Cl411     Co1417   2.439   1_565  S
Cl411      Co924   2.451       .  S
Cl411      Co928   2.465       .  S
C412        C502   1.468       .  S
C415        C417   1.558       .  S
C415        C419   1.548       .  S
C415        C418   1.535       .  S
C415        C461   1.545       .  S
C416        C420   1.546       .  S
C416        C422   1.543       .  S
C416        C421   1.537       .  S
C416        C463   1.549   1_556  S
C417        C425   1.388       .  A
C417        C420   1.414       .  A
C418        C429   1.370       .  A
C418        C421   1.408       .  A
C419        C433   1.386       .  A
C419        C422   1.410       .  A
C420        C423   1.377       .  A
C421        C427   1.373       .  A
C422        C430   1.372       .  A
C423        N424   1.360       .  A
C423        H436   1.082       .  S
N424        C425   1.364       .  A
N424        C486   1.446       .  S
C425        H426   1.079       .  S
C427        N428   1.360       .  A
C427        H437   1.082       .  S
N428        C429   1.356       .  A
N428        C478   1.432       .  S
C429        H435   1.083       .  S
C430        N431   1.359       .  A
C430        H432   1.083       .  S
N431        C433   1.363       .  A
N431        C482   1.440       .  S
C433        H434   1.082       .  S
C438        C440   1.563       .  S
C438        C442   1.548       .  S
C438        C441   1.545       .  S
C439        C443   1.526       .  S
C439        C445   1.547       .  S
C439        C444   1.562       .  S
C439        C462   1.544       .  S
C440        C448   1.397       .  A
C440        C443   1.401       .  A
C441        C452   1.381       .  A
C441        C444   1.412       .  A
C442        C456   1.385       .  A
C442        C445   1.408       .  A
C443        C446   1.368       .  A
C444        C450   1.388       .  A
C445        C453   1.379       .  A
C446        N447   1.354       .  A
C446        H459   1.079       .  S
N447        C448   1.371       .  A
N447        C473   1.452       .  S
C448        H449   1.082       .  S
C450        N451   1.368       .  A
C450        H460   1.082       .  S
N451        C452   1.360       .  A
N451        C465   1.449       .  S
C452        H458   1.083       .  S
C453        N454   1.362       .  A
C453        H455   1.083       .  S
N454        C456   1.361       .  A
N454        C470   1.444       .  S
C456        H457   1.080       .  S
C461        C462   1.249       .  T
C463        C464   1.251       .  T
C465        C466   1.358       .  D
C465        H467   1.085       .  S
C466        H468   1.082       .  S
C469        C470   1.355       .  D
C469        H471   1.085       .  S
C470        H472   1.087       .  S
C473        C474   1.358       .  D
C473        H475   1.086       .  S
C474        H476   1.084       .  S
C477        C478   1.342       .  D
C477        H479   1.085       .  S
C478        H480   1.087       .  S
C481        C482   1.355       .  D
C481        H483   1.082       .  S
C482        H484   1.088       .  S
C485        C486   1.352       .  D
C485        H487   1.085       .  S
C486        H488   1.086       .  S
C489        C490   1.189       .  T
C490       C1015   1.384       .  S
C491        C492   1.185       .  T
C491       C1014   1.378       .  S
C493        C494   1.204       .  T
C494       C1019   1.408       .  S
C495        C496   1.206       .  T
C495       C1018   1.411       .  S
C497        C498   1.353       .  D
C497        H499   1.085       .  S
C498        H500   1.086       .  S
C501        C502   1.345       .  D
C501        H503   1.089       .  S
C502        H504   1.082       .  S
C505        C506   1.348       .  D
C505        H507   1.086       .  S
C506        H508   1.086       .  S
C509        C510   1.342       .  D
C509        H511   1.086       .  S
C513        C514   1.351   1_556  D
C514        H516   1.085       .  S
C517        C518   1.352   1_556  D
C518        H520   1.085       .  S
C521        C522   1.248       .  T
C523        C524   1.249       .  T
C525        C527   1.546   1_554  S
C525        C529   1.544       .  S
C525        C528   1.537   1_554  S
C525        C786   1.537       .  S
C526        C530   1.540       .  S
C526        C532   1.555       .  S
C526        C531   1.527       .  S
C526        C783   1.545       .  S
C527        C535   1.383       .  A
C527        C792   1.411       .  A
C528        C539   1.378   1_556  A
C528        C793   1.410       .  A
C529        C543   1.378       .  A
C529        C794   1.411   1_554  A
C530        C789   1.415       .  A
C530        C533   1.376       .  A
C531        C790   1.403       .  A
C531        C537   1.367       .  A
C532        C791   1.414       .  A
C532        C540   1.380       .  A
C533        N534   1.355       .  A
C533        H546   1.083       .  S
N534        C797   1.359       .  A
N534        C772   1.437       .  S
C535        N796   1.360       .  A
C535        H536   1.083   1_556  S
C537        N800   1.355       .  A
C537        H547   1.077       .  S
N538        C799   1.358       .  A
N538        C539   1.359   1_556  A
N538       C1041   1.433       .  S
C539        H545   1.082       .  S
C540        N803   1.365       .  A
C540        H542   1.083       .  S
N541        C802   1.363       .  A
N541        C543   1.361   1_556  A
N541       C1037   1.443       .  S
C543        H544   1.082       .  S
C548        C550   1.567       .  S
C548        C552   1.537       .  S
C548        C551   1.563       .  S
C548        C784   1.545       .  S
C549        C553   1.550       .  S
C549        C555   1.529       .  S
C549        C554   1.540       .  S
C549        C785   1.537       .  S
C550        C558   1.398       .  A
C550        C553   1.414       .  A
C551        C562   1.397       .  A
C551        C554   1.406       .  A
C552        C566   1.372       .  A
C552        C555   1.403       .  A
C553        C556   1.382       .  A
C554        C560   1.376       .  A
C555        C563   1.369       .  A
C556        N557   1.361       .  A
C556        H569   1.083       .  S
N557        C558   1.369       .  A
N557        C760   1.456       .  S
C558        H559   1.082       .  S
C560        N561   1.359       .  A
C560        H570   1.083       .  S
N561        C562   1.368       .  A
N561        C767   1.452       .  S
C562        H568   1.078       .  S
C563        N564   1.358       .  A
C563        H565   1.081       .  S
N564        C566   1.358       .  A
N564        C763   1.431       .  S
C566        H567   1.083       .  S
C571        N589   1.349       .  A
C571        C608   1.458       .  S
C571        C747   1.465       .  S
N572        N589   1.322       .  A
N572        N594   1.324       .  A
N572      Co1657   2.088   1_455  S
C573        N598   1.334       .  A
C573        H618   1.082       .  S
C573        C611   1.457       .  S
H574        C877   1.074       .  S
C575        N861   1.357       .  A
C575        H604   1.082       .  S
C575        C579   1.448       .  S
Co576       N584   2.060       .  S
Co576       N616   2.106   1_455  S
Co576       N592   2.120       .  S
Co576     Cl1668   2.434   1_455  S
N577        C615   1.330       .  A
N577        N584   1.318       .  A
N577       Co578   2.085       .  S
Co578       N581   2.031       .  S
Co578       N598   2.034       .  S
Co578      N1633   2.038   1_455  S
Co578     Cl1668   2.434   1_455  S
C579       N1141   1.342       .  A
C579        C758   1.434       .  S
N580        N587   1.310       .  A
N580        N610   1.328       .  A
N580       Co613   2.167       .  S
N581       N1123   1.322       .  A
N581        N879   1.321       .  A
N582        C611   1.353       .  A
N582        N592   1.323       .  A
H583        C608   1.082       .  S
N584        N605   1.326       .  A
N585        N603   1.321       .  A
N585        N590   1.324       .  A
N585      Co1626   2.048       .  S
C586        N590   1.342       .  A
C586        C614   1.452       .  S
C586        C771   1.474       .  S
N587        C602   1.339       .  A
N587       Co609   2.005       .  S
C588        N616   1.331       .  A
C588        H622   1.065       .  S
C588       C1639   1.448       .  S
C591       C1636   1.473       .  S
C591        C754   1.437       .  S
N592        N598   1.314       .  A
N593        C619   1.329       .  A
N593        N595   1.310       .  A
N593       Co609   2.058       .  S
N594        C608   1.341       .  A
N595        N623   1.326       .  A
N595       Co613   2.069       .  S
H596        C619   1.079       .  S
H597        C614   1.078       .  S
N599        C837   1.330       .  A
N599       N1105   1.329       .  A
N599       Co613   2.104   1_545  S
N600        N612   1.315   1_545  A
N600       N1140   1.306       .  A
N600       Co609   2.049   1_545  S
C601        N605   1.351       .  A
C601        C615   1.449       .  S
C601        C780   1.463       .  S
C602        H606   1.081       .  S
C602        C621   1.456       .  S
N603        C614   1.344       .  A
C607        N623   1.354       .  A
C607        C619   1.445       .  S
C607        C743   1.461       .  S
Co609      N1620   2.092       .  S
N610        C621   1.359       .  A
C611        C739   1.479       .  S
C615        H836   1.081       .  S
N616       N1124   1.322       .  A
N617       C1103   1.346   1_455  A
N617        N843   1.318   1_455  A
Cl620     Co1624   2.440       .  S
Cl620     Co1626   2.430       .  S
C621        C776   1.500       .  S
C624        N642   1.345       .  A
C624        C661   1.469       .  S
C624        C736   1.519       .  S
N625        N642   1.336       .  A
N625        N647   1.315   1_565  A
N625      Co1710   2.090   1_455  S
C626        N651   1.328       .  A
C626        H671   1.082       .  S
C626        C664   1.444       .  S
H627        C668   1.080       .  S
C628        N652   1.341       .  A
C628        H657   1.074       .  S
C628        C632   1.426       .  S
Co629       N637   2.030       .  S
Co629       N669   2.080       .  S
Co629       N645   2.158       .  S
Co629     Cl1721   2.456       .  S
N630        C668   1.361       .  A
N630        N637   1.319       .  A
N630       Co631   2.163       .  S
Co631       N634   2.085   1_455  S
Co631       N651   2.029       .  S
Co631      N1686   2.071   1_455  S
Co631     Cl1721   2.438       .  S
C632       N1194   1.353       .  A
C632        C751   1.453       .  S
N633        N640   1.315       .  A
N633        N663   1.316       .  A
N633       Co666   2.068       .  S
N634       N1176   1.328       .  A
N634        N670   1.331       .  A
N635        C664   1.371       .  A
N635        N645   1.338       .  A
H636        C661   1.081   1_545  S
N637        N658   1.318       .  A
N638        N656   1.319       .  A
N638        N643   1.334       .  A
N638      Co1679   2.068       .  S
C639        N643   1.356       .  A
C639        C667   1.457       .  S
C639        C759   1.507       .  S
N640        C655   1.349       .  A
N640       Co662   2.097       .  S
C641        N669   1.349       .  A
C641        H675   1.082       .  S
C641       C1692   1.454       .  S
C644       C1689   1.425       .  S
C644        C755   1.436       .  S
N645        N651   1.314       .  A
N646        C672   1.353       .  A
N646        N648   1.306       .  A
N646       Co662   2.152       .  S
N647        C661   1.364   1_545  A
N648        N676   1.324       .  A
N648       Co666   1.999       .  S
H649        C672   1.063       .  S
H650        C667   1.075       .  S
N652       N1158   1.299       .  A
N652       Co666   2.068       .  S
N653        N665   1.325       .  A
N653       N1193   1.331       .  A
N653       Co662   2.103   1_545  S
C654        N658   1.338       .  A
C654        C668   1.486       .  S
C654        C768   1.497       .  S
C655        H659   1.077       .  S
C655        C674   1.457       .  S
N656        C667   1.353       .  A
C660        N676   1.337       .  A
C660        C672   1.458       .  S
C660        C731   1.488       .  S
Co662      N1673   2.080       .  S
N663        C674   1.339       .  A
C664        C728   1.503       .  S
N669       N1177   1.327       .  A
N670       C1156   1.355       .  A
Cl673     Co1677   2.432       .  S
Cl673     Co1679   2.437       .  S
C674        C764   1.465       .  S
C677        C679   1.553       .  S
C677        C681   1.547       .  S
C677        C680   1.548       .  S
C677        C723   1.555       .  S
C678        C682   1.528       .  S
C678        C684   1.518       .  S
C678        C683   1.545       .  S
C678        C725   1.548       .  S
C679        C687   1.383       .  A
C679        C682   1.417       .  A
C680        C691   1.380       .  A
C680        C683   1.425       .  A
C681        C695   1.381       .  A
C681        C684   1.404       .  A
C682        C685   1.365       .  A
C683        C689   1.375       .  A
C684        C692   1.358       .  A
C685        N686   1.353       .  A
C685        H698   1.082       .  S
N686        C687   1.361       .  A
N686        C748   1.435       .  S
C687        H688   1.083       .  S
C689        N690   1.356       .  A
C689        H699   1.083       .  S
N690        C691   1.356       .  A
N690        C740   1.438       .  S
C691        H697   1.081       .  S
C692        N693   1.352       .  A
C692        H694   1.080       .  S
N693        C695   1.364       .  A
N693        C744   1.432       .  S
C695        H696   1.082       .  S
C700        C702   1.564       .  S
C700        C704   1.546       .  S
C700        C703   1.550       .  S
C700        C988   1.539       .  S
C701        C705   1.564       .  S
C701        C707   1.548       .  S
C701        C706   1.550       .  S
C701        C724   1.555       .  S
C702        C710   1.399       .  A
C702        C705   1.413       .  A
C703        C714   1.392       .  A
C703        C706   1.403       .  A
C704        C718   1.384       .  A
C704        C707   1.409       .  A
C705        C708   1.393       .  A
C706        C712   1.385       .  A
C707        C715   1.376       .  A
C708        N709   1.368       .  A
C708        H721   1.082       .  S
N709        C710   1.368       .  A
N709        C735   1.467       .  S
C710        H711   1.082       .  S
C712        N713   1.364       .  A
C712        H722   1.082       .  S
N713        C714   1.364       .  A
N713        C727   1.452       .  S
C714        H720   1.082       .  S
C715        N716   1.361       .  A
C715        H717   1.083       .  S
N716        C718   1.365       .  A
N716        C732   1.448       .  S
C718        H719   1.081       .  S
C723        C724   1.255       .  T
C725        C726   1.250       .  T
C726        C962   1.546       .  S
C727        C728   1.363       .  D
C727        H729   1.085       .  S
C728        H730   1.085       .  S
C731        C732   1.351       .  D
C731        H733   1.084       .  S
C732        H734   1.087       .  S
C735        C736   1.365       .  D
C735        H737   1.086       .  S
C736        H738   1.085       .  S
C739        C740   1.351       .  D
C739        H741   1.084       .  S
C740        H742   1.088       .  S
C743        C744   1.350       .  D
C743        H745   1.084       .  S
C744        H746   1.086       .  S
C747        C748   1.347       .  D
C747        H749   1.084       .  S
C748        H750   1.085       .  S
C751        C752   1.213       .  T
C753        C754   1.209       .  T
C755        C756   1.201       .  T
C757        C758   1.200       .  T
C759        C760   1.357       .  D
C759        H761   1.085       .  S
C760        H762   1.086       .  S
C763        C764   1.345       .  D
C763        H765   1.088       .  S
C764        H766   1.084       .  S
C767        C768   1.358       .  D
C767        H769   1.088       .  S
C768        H770   1.085       .  S
C771        C772   1.343       .  D
C771        H773   1.085       .  S
C772       H1036   1.087       .  S
H774       C1034   1.087       .  S
C775        N803   1.453       .  S
C775        C776   1.357       .  D
C775       H1039   1.084       .  S
C776        H778   1.083       .  S
H777       C1037   1.085       .  S
C779        N800   1.429       .  S
C779        C780   1.345       .  D
C779       H1043   1.085       .  S
C780        H782   1.084       .  S
H781       C1041   1.087       .  S
C783        C784   1.249       .  T
C785        C786   1.244       .  T
C787        C789   1.550       .  S
C787        C791   1.552       .  S
C787        C790   1.532       .  S
C787       C1048   1.542       .  S
C788        C792   1.533       .  S
C788        C794   1.550       .  S
C788        C793   1.542       .  S
C788       C1045   1.546       .  S
C789        C797   1.379       .  A
C790        C801   1.372       .  A
C791        C805   1.386       .  A
C792        C795   1.371       .  A
C793        C799   1.369       .  A
C794        C802   1.381       .  A
C795        N796   1.356       .  A
C795        H808   1.082       .  S
N796       C1034   1.439       .  S
C797        H798   1.078       .  S
C799        H809   1.083       .  S
N800        C801   1.356       .  A
C801        H807   1.083       .  S
C802        H804   1.083       .  S
N803        C805   1.365       .  A
C805        H806   1.082       .  S
C810        C812   1.564       .  S
C810        C814   1.544       .  S
C810        C813   1.555       .  S
C810       C1046   1.545       .  S
C811        C815   1.520       .  S
C811        C817   1.533       .  S
C811        C816   1.555       .  S
C811       C1047   1.542       .  S
C812        C820   1.398       .  A
C812        C815   1.403       .  A
C813        C824   1.386       .  A
C813        C816   1.415       .  A
C814        C828   1.377       .  A
C814        C817   1.408       .  A
C815        C818   1.359       .  A
C816        C822   1.382       .  A
C817        C825   1.371       .  A
C818        N819   1.351       .  A
C818        H831   1.077       .  S
N819        C820   1.371       .  A
N819       C1022   1.448       .  S
C820        H821   1.082       .  S
C822        N823   1.364       .  A
C822        H832   1.083       .  S
N823        C824   1.363       .  A
N823       C1029   1.447       .  S
C824        H830   1.082       .  S
C825        N826   1.356       .  A
C825        H827   1.083       .  S
N826        C828   1.363       .  A
N826       C1025   1.436       .  S
C828        H829   1.082       .  S
C833        N851   1.353       .  A
C833        C870   1.456       .  S
C833       C1009   1.478       .  S
N834        N851   1.328       .  A
N834        N856   1.313       .  A
N834      Co1919   2.091   1_455  S
C835        N860   1.343       .  A
C835        H880   1.081   1_556  S
C835        C873   1.457       .  S
C837        H866   1.065   1_545  S
C837        C841   1.434       .  S
Co838       N846   2.034       .  S
Co838       N878   2.047       .  S
Co838       N854   2.099       .  S
Co838     Cl1930   2.438   1_455  S
N839        C877   1.342   1_556  A
N839        N846   1.317       .  A
N839       Co840   2.106   1_556  S
Co840       N843   2.087   1_455  S
Co840       N860   2.045   1_554  S
Co840      N1895   2.105   1_455  S
Co840     Cl1930   2.430   1_454  S
C841       N1403   1.326       .  A
C841       C1020   1.439       .  S
N842        N849   1.323       .  A
N842        N872   1.336       .  A
N842       Co875   2.151   1_554  S
N843       N1385   1.320       .  A
N844        C873   1.344       .  A
N844        N854   1.317       .  A
H845        C870   1.081       .  S
N846        N867   1.315       .  A
N847        N865   1.321       .  A
N847        N852   1.323       .  A
N847      Co1888   2.059       .  S
C848        N852   1.346       .  A
C848        C876   1.461       .  S
C848       C1033   1.467       .  S
N849        C864   1.332       .  A
N849       Co871   2.031   1_554  S
C850        N878   1.343       .  A
C850        H884   1.073       .  S
C850       C1901   1.431   1_455  S
C853       C1898   1.468       .  S
C853       C1016   1.409       .  S
N854        N860   1.317       .  A
N855        C881   1.350       .  A
N855        N857   1.319       .  A
N855       Co871   2.107       .  S
N856        C870   1.335       .  A
N857        N885   1.313       .  A
N857       Co875   2.042       .  S
H858        C881   1.081       .  S
H859        C876   1.082       .  S
N861       N1367   1.330       .  A
N861       Co875   2.103   1_544  S
N862        N874   1.310       .  A
N862       N1402   1.318       .  A
N862       Co871   2.024       .  S
C863        N867   1.340   1_554  A
C863        C877   1.464       .  S
C863       C1042   1.479       .  S
C864        H868   1.082       .  S
C864        C883   1.442       .  S
N865        C876   1.342       .  A
C869        N885   1.342       .  A
C869        C881   1.470       .  S
C869       C1005   1.479       .  S
Co871      N1882   2.045       .  S
N872        C883   1.354       .  A
C873       C1001   1.464       .  S
N878       N1386   1.320   1_455  A
N879       C1365   1.330       .  A
Cl882     Co1886   2.448       .  S
Cl882     Co1888   2.430       .  S
C883       C1038   1.484       .  S
C886        N904   1.349       .  A
C886        C923   1.461       .  S
C886        C998   1.485       .  S
N887        N904   1.327       .  A
N887        N909   1.324       .  A
N887      Co1972   2.079   1_455  S
C888        N913   1.333       .  A
C888        H933   1.082       .  S
C888        C926   1.449       .  S
H889        C930   1.081       .  S
C890        N914   1.326       .  A
C890        H919   1.084   1_545  S
C890        C894   1.445       .  S
Co891       N899   2.048       .  S
Co891       N931   2.081       .  S
Co891       N907   2.135       .  S
Co891     Cl1983   2.442   1_455  S
N892        C930   1.355       .  A
N892        N899   1.325       .  A
N892       Co893   2.137   1_455  S
Co893       N896   2.091       .  S
Co893       N913   2.048   1_655  S
Co893      N1948   2.078       .  S
Co893     Cl1983   2.440       .  S
C894       N1456   1.352       .  A
C894       C1013   1.411   1_545  S
N895        N902   1.317       .  A
N895        N925   1.328       .  A
N895       Co928   2.117       .  S
N896       N1438   1.325       .  A
N896        N932   1.322       .  A
N897        C926   1.361       .  A
N897        N907   1.334       .  A
H898        C923   1.082       .  S
N899        N920   1.321       .  A
N900        N918   1.325       .  A
N900        N905   1.328       .  A
N900      Co1941   2.086       .  S
C901        N905   1.346       .  A
C901        C929   1.449       .  S
C901       C1021   1.474       .  S
N902        C917   1.327       .  A
N902       Co924   2.040       .  S
C903        N931   1.334       .  A
C903        H937   1.082       .  S
C903       C1954   1.457       .  S
C906       C1951   1.446       .  S
C906       C1017   1.441       .  S
N907        N913   1.322       .  A
N908        C934   1.351       .  A
N908        N910   1.325       .  A
N908       Co924   2.126       .  S
N909        C923   1.345       .  A
N910        N938   1.320       .  A
N910       Co928   2.051       .  S
H911        C934   1.081       .  S
H912        C929   1.082       .  S
N914       N1420   1.316       .  A
N914       Co928   2.032   1_545  S
N915        N927   1.332       .  A
N915       N1455   1.327       .  A
N915       Co924   2.088       .  S
C916        N920   1.341       .  A
C916        C930   1.475       .  S
C916       C1030   1.496       .  S
C917        H921   1.082       .  S
C917        C936   1.453       .  S
N918        C929   1.343       .  A
C922        N938   1.342       .  A
C922        C934   1.462       .  S
C922        C993   1.477       .  S
Co924      N1935   2.072       .  S
N925        C936   1.359       .  A
C926        C990   1.486       .  S
N931       N1439   1.325       .  A
N932       C1418   1.348       .  A
Cl935     Co1939   2.440       .  S
Cl935     Co1941   2.448       .  S
C936       C1026   1.472       .  S
C939        C941   1.539       .  S
C939        C943   1.549       .  S
C939        C942   1.539       .  S
C939        C985   1.541       .  S
C940        C944   1.536       .  S
C940        C946   1.539       .  S
C940        C945   1.537       .  S
C940        C987   1.542       .  S
C941        C949   1.381       .  A
C941        C944   1.408       .  A
C942        C953   1.373       .  A
C942        C945   1.422       .  A
C943        C957   1.383       .  A
C943        C946   1.420       .  A
C944        C947   1.372       .  A
C945        C951   1.376       .  A
C946        C954   1.371       .  A
C947        N948   1.355       .  A
C947        H960   1.083       .  S
N948        C949   1.359       .  A
N948       C1010   1.434       .  S
C949        H950   1.082       .  S
C951        N952   1.353       .  A
C951        H961   1.082       .  S
N952        C953   1.351       .  A
N952       C1002   1.429       .  S
C953        H959   1.083       .  S
C954        N955   1.352       .  A
C954        H956   1.083       .  S
N955        C957   1.357       .  A
N955       C1006   1.428       .  S
C957        H958   1.083       .  S
C962        C964   1.562       .  S
C962        C966   1.548       .  S
C962        C965   1.546       .  S
C963        C967   1.529       .  S
C963        C969   1.540       .  S
C963        C968   1.552       .  S
C963        C986   1.540       .  S
C964        C972   1.393       .  A
C964        C967   1.405       .  A
C965        C976   1.380       .  A
C965        C968   1.411       .  A
C966        C980   1.382       .  A
C966        C969   1.410       .  A
C967        C970   1.372       .  A
C968        C974   1.383       .  A
C969        C977   1.373       .  A
C970        N971   1.356       .  A
C970        H983   1.082       .  S
N971        C972   1.369       .  A
N971        C997   1.450       .  S
C972        H973   1.082       .  S
C974        N975   1.364       .  A
C974        H984   1.083       .  S
N975        C976   1.361       .  A
N975        C989   1.446       .  S
C976        H982   1.082       .  S
C977        N978   1.358       .  A
C977        H979   1.083       .  S
N978        C980   1.362       .  A
N978        C994   1.439       .  S
C980        H981   1.081       .  S
C985        C986   1.246       .  T
C987        C988   1.246   1_556  T
C989        C990   1.353       .  D
C989        H991   1.082       .  S
C990        H992   1.085       .  S
C993        C994   1.347       .  D
C993        H995   1.085       .  S
C994        H996   1.088       .  S
C997        C998   1.355       .  D
C997        H999   1.086       .  S
C998       H1000   1.085       .  S
C1001      C1002   1.343       .  D
C1001      H1003   1.085       .  S
C1002      H1004   1.088       .  S
C1005      C1006   1.346       .  D
C1005      H1007   1.083       .  S
C1006      H1008   1.087       .  S
C1009      C1010   1.345       .  D
C1009      H1011   1.085       .  S
C1010      H1012   1.085       .  S
C1013      C1014   1.187       .  T
C1015      C1016   1.188       .  T
C1017      C1018   1.207       .  T
C1019      C1020   1.205   1_565  T
C1021      C1022   1.355       .  D
C1021      H1023   1.084       .  S
C1022      H1024   1.086       .  S
C1025      C1026   1.345       .  D
C1025      H1027   1.088       .  S
C1026      H1028   1.078       .  S
C1029      C1030   1.357       .  D
C1029      H1031   1.087       .  S
C1030      H1032   1.085       .  S
C1033      C1034   1.345       .  D
C1033      H1035   1.085       .  S
C1037      C1038   1.352   1_556  D
C1038      H1040   1.085       .  S
C1041      C1042   1.349   1_556  D
C1042      H1044   1.085       .  S
C1045      C1046   1.250       .  T
C1047      C1048   1.248       .  T
C1049      C1051   1.568   1_554  S
C1049      C1053   1.539   1_554  S
C1049      C1052   1.547       .  S
C1049      C1310   1.551       .  S
C1050      C1054   1.522       .  S
C1050      C1056   1.539       .  S
C1050      C1055   1.525       .  S
C1050      C1307   1.542       .  S
C1051      C1059   1.393   1_556  A
C1051      C1316   1.417       .  A
C1052      C1063   1.380       .  A
C1052      C1317   1.409   1_554  A
C1053      C1067   1.373       .  A
C1053      C1318   1.404       .  A
C1054      C1313   1.412       .  A
C1054      C1057   1.358       .  A
C1055      C1314   1.404       .  A
C1055      C1061   1.363       .  A
C1056      C1315   1.418       .  A
C1056      C1064   1.370       .  A
C1057      N1058   1.350       .  A
C1057      H1070   1.079       .  S
N1058      C1321   1.375       .  A
N1058      C1296   1.451       .  S
C1059      N1320   1.369   1_554  A
C1059      H1060   1.082       .  S
C1061      N1324   1.360       .  A
C1061      H1071   1.081       .  S
N1062      C1323   1.358       .  A
N1062      C1063   1.358   1_556  A
N1062      C1565   1.432   1_556  S
C1063      H1069   1.082       .  S
C1064      N1327   1.356       .  A
C1064      H1066   1.083       .  S
N1065      C1326   1.355       .  A
N1065      C1067   1.359       .  A
N1065      C1561   1.430       .  S
C1067      H1068   1.083   1_556  S
C1072      C1074   1.545       .  S
C1072      C1076   1.557       .  S
C1072      C1075   1.550       .  S
C1072      C1308   1.541       .  S
C1073      C1077   1.546       .  S
C1073      C1079   1.562       .  S
C1073      C1078   1.537       .  S
C1073      C1309   1.551       .  S
C1074      C1082   1.383       .  A
C1074      C1077   1.407       .  A
C1075      C1086   1.390       .  A
C1075      C1078   1.411       .  A
C1076      C1090   1.392       .  A
C1076      C1079   1.411       .  A
C1077      C1080   1.383       .  A
C1078      C1084   1.371       .  A
C1079      C1087   1.389       .  A
C1080      N1081   1.360       .  A
C1080      H1093   1.083       .  S
N1081      C1082   1.359       .  A
N1081      C1284   1.444       .  S
C1082      H1083   1.079       .  S
C1084      N1085   1.353       .  A
C1084      H1094   1.082       .  S
N1085      C1086   1.365       .  A
N1085      C1291   1.444       .  S
C1086      H1092   1.082       .  S
C1087      N1088   1.369       .  A
C1087      H1089   1.083       .  S
N1088      C1090   1.365       .  A
N1088      C1287   1.459       .  S
C1090      H1091   1.082       .  S
C1095      N1113   1.346       .  A
C1095      C1132   1.467       .  S
C1095      C1271   1.516       .  S
N1096      N1113   1.335       .  A
N1096      N1118   1.318       .  A
C1097      N1122   1.337       .  A
C1097      H1142   1.082       .  S
C1097      C1135   1.457       .  S
H1098      C1401   1.082       .  S
C1099      N1385   1.346       .  A
C1099      H1128   1.071       .  S
C1099      C1103   1.438       .  S
Co1100     N1642   2.154       .  S
Co1100     N1108   2.026       .  S
Co1100     N1140   2.080       .  S
Co1100     N1116   2.104       .  S
N1101      C1139   1.340       .  A
N1101      N1108   1.314       .  A
N1101     Co1102   2.098       .  S
Co1102     N1105   2.034       .  S
Co1102     N1122   2.062       .  S
C1103      C1282   1.439   1_655  S
N1104      N1111   1.312       .  A
N1104      N1134   1.326       .  A
N1104     Co1137   2.132       .  S
N1105      N1403   1.325       .  A
N1106      C1135   1.354       .  A
N1106      N1116   1.326       .  A
H1107      C1132   1.075       .  S
N1108      N1129   1.318       .  A
N1109      N1127   1.327       .  A
N1109      N1114   1.327       .  A
C1110      N1114   1.345       .  A
C1110      C1138   1.451       .  S
C1110      C1295   1.481       .  S
N1111      C1126   1.328       .  A
N1111     Co1133   2.021       .  S
C1112      N1140   1.356       .  A
C1112      H1146   1.080       .  S
C1115      N1660   1.356       .  A
C1115      C1278   1.438       .  S
N1116      N1122   1.319       .  A
N1117      C1143   1.333       .  A
N1117      N1119   1.317       .  A
N1117     Co1133   2.090       .  S
N1118      C1132   1.357       .  A
N1118     Co1624   2.151       .  S
N1119      N1147   1.325       .  A
N1119     Co1137   2.057       .  S
H1120      C1143   1.082       .  S
H1121      C1138   1.081       .  S
N1123      C1361   1.330       .  A
N1123     Co1137   2.102   1_455  S
N1124      N1136   1.323       .  A
N1124     Co1133   2.030       .  S
C1125      N1129   1.342       .  A
C1125      C1139   1.457       .  S
C1125      C1304   1.452       .  S
C1126      H1130   1.079       .  S
C1126      C1145   1.455       .  S
N1127      C1138   1.347       .  A
N1127     Co1661   2.063   1_545  S
C1131      N1147   1.350       .  A
C1131      C1143   1.450       .  S
C1131      C1267   1.461       .  S
Co1133    Cl1668   2.437       .  S
N1134      C1145   1.359       .  A
C1135      C1263   1.476       .  S
N1136      C1639   1.330       .  A
Co1137     N1651   2.113       .  S
Co1137    Cl1668   2.438       .  S
C1139      H1360   1.080       .  S
N1141      N1367   1.324       .  A
Cl1144    Co1657   2.448       .  S
Cl1144    Co1661   2.465       .  S
C1145      C1300   1.487       .  S
C1148      N1166   1.353       .  A
C1148      C1185   1.449       .  S
C1148      C1260   1.478       .  S
N1149      N1166   1.329       .  A
N1149      N1171   1.313       .  A
C1150      N1175   1.344       .  A
C1150      H1195   1.082       .  S
C1150      C1188   1.457       .  S
H1151      C1192   1.064       .  S
C1152      N1176   1.335       .  A
C1152      H1181   1.082       .  S
C1152      C1156   1.457       .  S
Co1153     N1695   2.032   1_545  S
Co1153     N1161   2.084       .  S
Co1153     N1193   2.074       .  S
Co1153     N1169   2.070       .  S
N1154      C1192   1.347       .  A
N1154      N1161   1.331       .  A
N1154     Co1155   2.141       .  S
Co1155     N1158   2.099   1_545  S
Co1155     N1175   2.059       .  S
C1156      C1275   1.436       .  S
N1157      N1164   1.324       .  A
N1157      N1187   1.340       .  A
N1157     Co1190   2.166       .  S
N1158      N1194   1.318       .  A
N1159      C1188   1.345       .  A
N1159      N1169   1.322       .  A
H1160      C1185   1.081       .  S
N1161      N1182   1.322       .  A
N1162      N1180   1.321       .  A
N1162      N1167   1.326       .  A
C1163      N1167   1.341       .  A
C1163      C1191   1.462       .  S
C1163      C1283   1.487       .  S
N1164      C1179   1.337       .  A
N1164     Co1186   2.051       .  S
C1165      N1193   1.347       .  A
C1165      H1199   1.075       .  S
C1168      N1713   1.325       .  A
C1168      C1279   1.435       .  S
N1169      N1175   1.308       .  A
N1170      C1196   1.357       .  A
N1170      N1172   1.323       .  A
N1170     Co1186   2.135       .  S
N1171      C1185   1.333       .  A
N1171     Co1677   2.027       .  S
N1172      N1200   1.321       .  A
N1172     Co1190   2.040       .  S
H1173      C1196   1.081       .  S
H1174      C1191   1.079       .  S
N1176     Co1190   2.086       .  S
N1177      N1189   1.320       .  A
N1177     Co1186   2.093   1_455  S
C1178      N1182   1.346       .  A
C1178      C1192   1.460       .  S
C1178      C1292   1.487       .  S
C1179      H1183   1.082       .  S
C1179      C1198   1.447       .  S
N1180      C1191   1.352       .  A
N1180     Co1714   2.124   1_545  S
C1184      N1200   1.340       .  A
C1184      C1196   1.476       .  S
C1184      C1255   1.497       .  S
Co1186    Cl1721   2.434   1_655  S
N1187      C1198   1.368       .  A
C1188      C1252   1.470       .  S
N1189      C1692   1.346       .  A
Co1190     N1704   2.063       .  S
Co1190    Cl1721   2.450   1_655  S
Cl1197    Co1710   2.384   1_545  S
Cl1197    Co1714   2.429   1_545  S
C1198      C1288   1.507       .  S
C1201      C1203   1.575       .  S
C1201      C1205   1.534       .  S
C1201      C1204   1.544       .  S
C1201      C1247   1.552       .  S
C1202      C1206   1.567       .  S
C1202      C1208   1.522       .  S
C1202      C1207   1.540       .  S
C1202      C1249   1.553       .  S
C1203      C1211   1.398       .  A
C1203      C1206   1.429       .  A
C1204      C1215   1.379       .  A
C1204      C1207   1.408       .  A
C1205      C1219   1.376       .  A
C1205      C1208   1.398       .  A
C1206      C1209   1.390       .  A
C1207      C1213   1.374       .  A
C1208      C1216   1.366       .  A
C1209      N1210   1.365       .  A
C1209      H1222   1.082       .  S
N1210      C1211   1.368       .  A
N1210      C1272   1.464       .  S
C1211      H1212   1.082       .  S
C1213      N1214   1.363       .  A
C1213      H1223   1.082       .  S
N1214      C1215   1.359       .  A
N1214      C1264   1.441       .  S
C1215      H1221   1.083       .  S
C1216      N1217   1.353       .  A
C1216      H1218   1.080       .  S
N1217      C1219   1.358       .  A
N1217      C1268   1.430       .  S
C1219      H1220   1.083       .  S
C1224      C1226   1.547       .  S
C1224      C1228   1.555       .  S
C1224      C1227   1.538       .  S
C1224      C1512   1.549       .  S
C1225      C1229   1.531       .  S
C1225      C1231   1.561       .  S
C1225      C1230   1.538       .  S
C1225      C1248   1.552       .  S
C1226      C1234   1.381       .  A
C1226      C1229   1.407       .  A
C1227      C1238   1.371       .  A
C1227      C1230   1.410       .  A
C1228      C1242   1.387       .  A
C1228      C1231   1.417       .  A
C1229      C1232   1.370       .  A
C1230      C1236   1.374       .  A
C1231      C1239   1.383       .  A
C1232      N1233   1.354       .  A
C1232      H1245   1.083       .  S
N1233      C1234   1.361       .  A
N1233      C1259   1.434       .  S
C1234      H1235   1.078       .  S
C1236      N1237   1.360       .  A
C1236      H1246   1.082       .  S
N1237      C1238   1.357       .  A
N1237      C1251   1.435       .  S
C1238      H1244   1.083       .  S
C1239      N1240   1.365       .  A
C1239      H1241   1.083       .  S
N1240      C1242   1.363       .  A
N1240      C1256   1.450       .  S
C1242      H1243   1.082       .  S
C1247      C1248   1.254       .  T
C1249      C1250   1.255       .  T
C1250      C1486   1.554       .  S
C1251      C1252   1.344       .  D
C1251      H1253   1.087       .  S
C1252      H1254   1.084       .  S
C1255      C1256   1.358       .  D
C1255      H1257   1.085       .  S
C1256      H1258   1.087       .  S
C1259      C1260   1.344       .  D
C1259      H1261   1.086       .  S
C1260      H1262   1.085       .  S
C1263      C1264   1.344       .  D
C1263      H1265   1.086       .  S
C1264      H1266   1.087       .  S
C1267      C1268   1.345       .  D
C1267      H1269   1.084       .  S
C1268      H1270   1.086       .  S
C1271      C1272   1.362       .  D
C1271      H1273   1.086       .  S
C1272      H1274   1.086       .  S
C1275      C1276   1.203       .  T
C1276      C1801   1.407       .  S
C1277      C1278   1.205       .  T
C1277      C1800   1.409       .  S
C1279      C1280   1.209   1_545  T
C1280      C1805   1.417       .  S
C1281      C1282   1.204       .  T
C1281      C1804   1.405       .  S
C1283      C1284   1.351       .  D
C1283      H1285   1.086       .  S
C1284      H1286   1.087       .  S
C1287      C1288   1.364       .  D
C1287      H1289   1.085       .  S
C1288      H1290   1.085       .  S
C1291      C1292   1.346       .  D
C1291      H1293   1.087       .  S
C1292      H1294   1.085       .  S
C1295      C1296   1.360       .  D
C1295      H1297   1.085       .  S
C1296      H1560   1.086       .  S
H1298      C1558   1.086       .  S
C1299      N1327   1.433       .  S
C1299      C1300   1.349       .  D
C1299      H1563   1.081       .  S
C1300      H1302   1.081       .  S
H1301      C1561   1.087       .  S
C1303      N1324   1.431       .  S
C1303      C1304   1.337       .  D
C1303      H1567   1.087       .  S
C1304      H1306   1.084       .  S
H1305      C1565   1.086       .  S
C1307      C1308   1.247       .  T
C1309      C1310   1.253       .  T
C1311      C1313   1.578       .  S
C1311      C1315   1.545       .  S
C1311      C1314   1.535       .  S
C1311      C1572   1.550       .  S
C1312      C1316   1.543       .  S
C1312      C1318   1.526       .  S
C1312      C1317   1.538       .  S
C1312      C1569   1.539       .  S
C1313      C1321   1.402       .  A
C1314      C1325   1.373       .  A
C1315      C1329   1.380       .  A
C1316      C1319   1.375       .  A
C1317      C1323   1.376       .  A
C1318      C1326   1.365       .  A
C1319      N1320   1.357       .  A
C1319      H1332   1.083       .  S
N1320      C1558   1.448       .  S
C1321      H1322   1.082       .  S
C1323      H1333   1.083       .  S
N1324      C1325   1.355       .  A
C1325      H1331   1.083       .  S
C1326      H1328   1.078       .  S
N1327      C1329   1.357       .  A
C1329      H1330   1.082       .  S
C1334      C1336   1.536       .  S
C1334      C1338   1.531       .  S
C1334      C1337   1.545       .  S
C1334      C1570   1.539       .  S
C1335      C1339   1.527       .  S
C1335      C1341   1.560       .  S
C1335      C1340   1.556       .  S
C1335      C1571   1.550       .  S
C1336      C1344   1.380       .  A
C1336      C1339   1.401       .  A
C1337      C1348   1.377       .  A
C1337      C1340   1.416       .  A
C1338      C1352   1.364       .  A
C1338      C1341   1.413       .  A
C1339      C1342   1.365       .  A
C1340      C1346   1.382       .  A
C1341      C1349   1.392       .  A
C1342      N1343   1.354       .  A
C1342      H1355   1.083       .  S
N1343      C1344   1.359       .  A
N1343      C1546   1.431       .  S
C1344      H1345   1.083       .  S
C1346      N1347   1.363       .  A
C1346      H1356   1.083       .  S
N1347      C1348   1.360       .  A
N1347      C1553   1.443       .  S
C1348      H1354   1.083       .  S
C1349      N1350   1.368       .  A
C1349      H1351   1.082       .  S
N1350      C1352   1.350       .  A
N1350      C1549   1.436       .  S
C1352      H1353   1.080       .  S
C1357      N1375   1.346       .  A
C1357      C1394   1.457       .  S
C1357      C1533   1.479       .  S
N1358      N1375   1.326       .  A
N1358      N1380   1.324       .  A
C1359      N1384   1.334       .  A
C1359      H1404   1.080       .  S
C1359      C1397   1.450       .  S
C1361      H1390   1.066       .  S
C1361      C1365   1.451       .  S
Co1362     N1904   2.074   1_545  S
Co1362     N1370   2.047       .  S
Co1362     N1402   2.065   1_545  S
Co1362     N1378   2.112       .  S
N1363      C1401   1.351   1_556  A
N1363      N1370   1.325       .  A
N1363     Co1364   2.136       .  S
Co1364     N1367   2.057   1_556  S
Co1364     N1384   2.034       .  S
C1365      C1544   1.440       .  S
N1366      N1373   1.317       .  A
N1366      N1396   1.315       .  A
N1366     Co1399   2.084       .  S
N1368      C1397   1.357       .  A
N1368      N1378   1.332       .  A
H1369      C1394   1.082       .  S
N1370      N1391   1.318       .  A
N1371      N1389   1.312       .  A
N1371      N1376   1.329       .  A
C1372      N1376   1.347       .  A
C1372      C1400   1.462       .  S
C1372      C1557   1.495       .  S
N1373      C1388   1.345       .  A
N1373     Co1395   2.060       .  S
C1374      N1402   1.329       .  A
C1374      H1408   1.080       .  S
C1377      N1922   1.345   1_455  A
C1377      C1540   1.441   1_455  S
N1378      N1384   1.319       .  A
N1379      C1405   1.341       .  A
N1379      N1381   1.315       .  A
N1379     Co1395   2.110       .  S
N1380      C1394   1.346       .  A
N1380     Co1886   2.090       .  S
N1381      N1409   1.316       .  A
N1381     Co1399   2.035       .  S
H1382      C1405   1.069       .  S
H1383      C1400   1.079       .  S
N1385     Co1399   2.057   1_554  S
N1386      N1398   1.320       .  A
N1386     Co1395   2.093       .  S
C1387      N1391   1.342   1_554  A
C1387      C1401   1.469       .  S
C1387      C1566   1.481       .  S
C1388      H1392   1.081       .  S
C1388      C1407   1.459       .  S
N1389      C1400   1.353       .  A
N1389     Co1923   2.100   1_545  S
C1393      N1409   1.342       .  A
C1393      C1405   1.465       .  S
C1393      C1529   1.475       .  S
Co1395    Cl1930   2.427       .  S
N1396      C1407   1.341       .  A
C1397      C1525   1.494       .  S
N1398      C1901   1.347       .  A
Co1399     N1913   2.069       .  S
Co1399    Cl1930   2.440       .  S
Cl1406    Co1919   2.426   1_455  S
Cl1406    Co1923   2.373   1_455  S
C1407      C1562   1.463       .  S
C1410      N1428   1.349       .  A
C1410      C1447   1.455       .  S
C1410      C1522   1.459       .  S
N1411      N1428   1.322       .  A
N1411      N1433   1.322       .  A
C1412      N1437   1.328       .  A
C1412      H1457   1.082       .  S
C1412      C1450   1.445       .  S
H1413      C1454   1.082       .  S
C1414      N1438   1.348       .  A
C1414      H1443   1.082       .  S
C1414      C1418   1.452       .  S
Co1415     N1957   2.057   1_545  S
Co1415     N1423   2.030       .  S
Co1415     N1455   2.074   1_545  S
Co1415     N1431   2.155       .  S
N1416      C1454   1.352       .  A
N1416      N1423   1.323       .  A
N1416     Co1417   2.123       .  S
Co1417     N1420   2.063       .  S
Co1417     N1437   2.039       .  S
C1418      C1537   1.434       .  S
N1419      N1426   1.318       .  A
N1419      N1449   1.331       .  A
N1419     Co1452   2.120       .  S
N1420      N1456   1.315       .  A
N1421      C1450   1.364       .  A
N1421      N1431   1.336       .  A
H1422      C1447   1.082       .  S
N1423      N1444   1.318       .  A
N1424      N1442   1.320       .  A
N1424      N1429   1.322       .  A
C1425      N1429   1.347       .  A
C1425      C1453   1.455       .  S
C1425      C1545   1.456       .  S
N1426      C1441   1.327       .  A
N1426     Co1448   2.042       .  S
C1427      N1455   1.335       .  A
C1427      H1461   1.082       .  S
C1430      N1975   1.333   1_455  A
C1430      C1541   1.401   1_455  S
N1431      N1437   1.326       .  A
N1432      C1458   1.355       .  A
N1432      N1434   1.321       .  A
N1432     Co1448   2.146       .  S
N1433      C1447   1.339       .  A
N1433     Co1939   2.058       .  S
N1434      N1462   1.319       .  A
N1434     Co1452   2.037       .  S
H1435      C1458   1.079       .  S
H1436      C1453   1.082       .  S
N1438     Co1452   2.075       .  S
N1439      N1451   1.331       .  A
N1439     Co1448   2.086   1_455  S
C1440      N1444   1.336       .  A
C1440      C1454   1.471       .  S
C1440      C1554   1.485       .  S
C1441      H1445   1.082       .  S
C1441      C1460   1.451       .  S
N1442      C1453   1.341       .  A
N1442     Co1976   2.055   1_545  S
C1446      N1462   1.339       .  A
C1446      C1458   1.477       .  S
C1446      C1517   1.487       .  S
Co1448    Cl1983   2.449       .  S
N1449      C1460   1.358       .  A
C1450      C1514   1.486       .  S
N1451      C1954   1.356       .  A
Co1452     N1966   2.072       .  S
Co1452    Cl1983   2.444       .  S
Cl1459    Co1972   2.461       .  S
Cl1459    Co1976   2.455       .  S
C1460      C1550   1.480       .  S
C1463      C1465   1.570       .  S
C1463      C1467   1.536       .  S
C1463      C1466   1.548       .  S
C1463      C1509   1.552       .  S
C1464      C1468   1.529       .  S
C1464      C1470   1.541       .  S
C1464      C1469   1.548       .  S
C1464      C1511   1.551       .  S
C1465      C1473   1.399       .  A
C1465      C1468   1.416       .  A
C1466      C1477   1.378       .  A
C1466      C1469   1.412       .  A
C1467      C1481   1.380       .  A
C1467      C1470   1.415       .  A
C1468      C1471   1.365       .  A
C1469      C1475   1.385       .  A
C1470      C1478   1.372       .  A
C1471      N1472   1.349       .  A
C1471      H1484   1.078       .  S
N1472      C1473   1.369       .  A
N1472      C1534   1.449       .  S
C1473      H1474   1.082       .  S
C1475      N1476   1.363       .  A
C1475      H1485   1.083       .  S
N1476      C1477   1.357       .  A
N1476      C1526   1.438       .  S
C1477      H1483   1.083       .  S
C1478      N1479   1.354       .  A
C1478      H1480   1.083       .  S
N1479      C1481   1.355       .  A
N1479      C1530   1.432       .  S
C1481      H1482   1.082       .  S
C1486      C1488   1.538       .  S
C1486      C1490   1.560       .  S
C1486      C1489   1.545       .  S
C1487      C1491   1.525       .  S
C1487      C1493   1.545       .  S
C1487      C1492   1.558       .  S
C1487      C1510   1.552       .  S
C1488      C1496   1.378       .  A
C1488      C1491   1.402       .  A
C1489      C1500   1.372       .  A
C1489      C1492   1.417       .  A
C1490      C1504   1.390       .  A
C1490      C1493   1.418       .  A
C1491      C1494   1.367       .  A
C1492      C1498   1.388       .  A
C1493      C1501   1.374       .  A
C1494      N1495   1.355       .  A
C1494      H1507   1.082       .  S
N1495      C1496   1.359       .  A
N1495      C1521   1.432       .  S
C1496      H1497   1.083       .  S
C1498      N1499   1.365       .  A
C1498      H1508   1.082       .  S
N1499      C1500   1.357       .  A
N1499      C1513   1.439       .  S
C1500      H1506   1.083       .  S
C1501      N1502   1.358       .  A
C1501      H1503   1.083       .  S
N1502      C1504   1.366       .  A
N1502      C1518   1.445       .  S
C1504      H1505   1.081       .  S
C1509      C1510   1.254       .  T
C1511      C1512   1.252   1_556  T
C1513      C1514   1.352       .  D
C1513      H1515   1.088       .  S
C1514      H1516   1.085       .  S
C1517      C1518   1.351       .  D
C1517      H1519   1.085       .  S
C1518      H1520   1.088       .  S
C1521      C1522   1.342       .  D
C1521      H1523   1.087       .  S
C1522      H1524   1.085       .  S
C1525      C1526   1.352       .  D
C1525      H1527   1.085       .  S
C1526      H1528   1.082       .  S
C1529      C1530   1.346       .  D
C1529      H1531   1.086       .  S
C1530      H1532   1.088       .  S
C1533      C1534   1.357       .  D
C1533      H1535   1.084       .  S
C1534      H1536   1.087       .  S
C1537      C1538   1.200       .  T
C1538      C2063   1.401       .  S
C1539      C1540   1.206       .  T
C1539      C2062   1.410       .  S
C1541      C1542   1.188       .  T
C1542      C2067   1.382   1_565  S
C1543      C1544   1.204       .  T
C1543      C2066   1.405       .  S
C1545      C1546   1.342       .  D
C1545      H1547   1.085       .  S
C1546      H1548   1.087       .  S
C1549      C1550   1.344       .  D
C1549      H1551   1.089       .  S
C1550      H1552   1.086       .  S
C1553      C1554   1.352       .  D
C1553      H1555   1.087       .  S
C1554      H1556   1.081       .  S
C1557      C1558   1.348       .  D
C1557      H1559   1.086   1_556  S
C1561      C1562   1.347       .  D
C1562      H1564   1.084       .  S
C1565      C1566   1.347       .  D
C1566      H1568   1.086       .  S
C1569      C1570   1.245       .  T
C1571      C1572   1.253       .  T
C1573      C1575   1.549   1_554  S
C1573      C1577   1.530   1_554  S
C1573      C1576   1.541   1_554  S
C1573      C1834   1.546       .  S
C1574      C1578   1.540       .  S
C1574      C1580   1.542       .  S
C1574      C1579   1.535       .  S
C1574      C1831   1.538       .  S
C1575      C1583   1.381       .  A
C1575      C1840   1.417       .  A
C1576      C1587   1.378       .  A
C1576      C1841   1.407       .  A
C1577      C1591   1.364       .  A
C1577      C1842   1.409       .  A
C1578      C1837   1.424       .  A
C1578      C1581   1.377       .  A
C1579      C1838   1.421       .  A
C1579      C1585   1.373       .  A
C1580      C1839   1.402       .  A
C1580      C1588   1.377       .  A
C1581      N1582   1.350       .  A
C1581      H1594   1.083       .  S
N1582      C1845   1.354       .  A
N1582      C1820   1.435       .  S
C1583      N1844   1.362       .  A
C1583      H1584   1.082   1_556  S
C1585      N1848   1.352       .  A
C1585      H1595   1.082       .  S
N1586      C1847   1.359       .  A
N1586      C1587   1.362       .  A
N1586      C2089   1.439       .  S
C1587      H1593   1.082   1_556  S
C1588      N1851   1.362       .  A
C1588      H1590   1.083       .  S
N1589      C1850   1.362       .  A
N1589      C1591   1.354       .  A
N1589      C2085   1.430       .  S
C1591      H1592   1.083   1_556  S
C1596      C1598   1.560       .  S
C1596      C1600   1.539       .  S
C1596      C1599   1.539       .  S
C1596      C1832   1.536       .  S
C1597      C1601   1.516       .  S
C1597      C1603   1.556       .  S
C1597      C1602   1.537       .  S
C1597      C1833   1.546       .  S
C1598      C1606   1.392       .  A
C1598      C1601   1.404       .  A
C1599      C1610   1.382       .  A
C1599      C1602   1.410       .  A
C1600      C1614   1.376       .  A
C1600      C1603   1.422       .  A
C1601      C1604   1.355       .  A
C1602      C1608   1.371       .  A
C1603      C1611   1.385       .  A
C1604      N1605   1.349       .  A
C1604      H1617   1.082       .  S
N1605      C1606   1.369       .  A
N1605      C1808   1.439       .  S
C1606      H1607   1.082       .  S
C1608      N1609   1.355       .  A
C1608      H1618   1.083       .  S
N1609      C1610   1.359       .  A
N1609      C1815   1.435       .  S
C1610      H1616   1.082       .  S
C1611      N1612   1.363       .  A
C1611      H1613   1.083       .  S
N1612      C1614   1.352       .  A
N1612      C1811   1.443       .  S
C1614      H1615   1.082       .  S
C1619      N1637   1.348       .  A
C1619      C1656   1.483   1_565  S
C1619      C1795   1.530       .  S
N1620      N1637   1.335       .  A
N1620      N1642   1.317   1_565  A
C1621      N1646   1.335       .  A
C1621      H1666   1.081       .  S
C1621      C1659   1.467       .  S
H1622      C1925   1.081       .  S
C1623      N1909   1.335   1_554  A
C1623      H1652   1.083       .  S
C1623      C1627   1.427       .  S
Co1624     N1632   2.024       .  S
Co1624     N1664   2.077       .  S
Co1624     N1640   2.095       .  S
N1625      C1663   1.328       .  A
N1625      N1632   1.310       .  A
N1625     Co1626   2.073       .  S
Co1626     N1629   2.054       .  S
Co1626     N1646   2.066       .  S
C1627      C1806   1.453       .  S
N1628      N1635   1.319       .  A
N1628      N1658   1.335       .  A
N1628     Co1661   2.147       .  S
N1629      N1927   1.334       .  A
N1630      C1659   1.352       .  A
N1630      N1640   1.325       .  A
H1631      C1656   1.078       .  S
N1632      N1653   1.321       .  A
N1633      N1651   1.317       .  A
N1633      N1638   1.317       .  A
C1634      N1638   1.339       .  A
C1634      C1662   1.469       .  S
C1634      C1819   1.477       .  S
N1635      C1650   1.329       .  A
N1635     Co1657   2.032       .  S
C1636      N1664   1.353       .  A
C1636      H1670   1.079       .  S
C1639      C1802   1.443       .  S
N1640      N1646   1.318       .  A
N1641      C1667   1.361       .  A
N1641      N1643   1.325       .  A
N1641     Co1657   2.168       .  S
N1642      C1656   1.359       .  A
N1643      N1671   1.320       .  A
N1643     Co1661   2.034       .  S
H1644      C1667   1.080       .  S
H1645      C1662   1.081       .  S
N1647      C1885   1.334       .  A
N1647     Co1661   2.043   1_545  S
N1648      N1660   1.333       .  A
N1648     Co1657   2.080   1_455  S
C1649      N1653   1.344       .  A
C1649      C1663   1.459       .  S
C1649      C1828   1.456       .  S
C1650      H1654   1.082       .  S
C1650      C1669   1.442       .  S
N1651      C1662   1.352       .  A
C1655      N1671   1.337       .  A
C1655      C1667   1.480       .  S
C1655      C1791   1.499       .  S
N1658      C1669   1.365       .  A
C1659      C1787   1.480       .  S
C1663      H1884   1.082       .  S
N1665      N1891   1.324   1_554  A
C1669      C1824   1.490       .  S
C1672      N1690   1.342       .  A
C1672      C1709   1.452       .  S
C1672      C1784   1.464       .  S
N1673      N1690   1.321       .  A
N1673      N1695   1.314       .  A
C1674      N1699   1.340       .  A
C1674      H1719   1.082       .  S
C1674      C1712   1.453       .  S
H1675      C1716   1.075       .  S
C1676      N1700   1.339   1_565  A
C1676      H1705   1.068       .  S
C1676      C1680   1.427   1_565  S
Co1677     N1685   2.074       .  S
Co1677     N1717   2.065       .  S
Co1677     N1693   2.085       .  S
N1678      C1716   1.348       .  A
N1678      N1685   1.331       .  A
N1678     Co1679   2.141       .  S
Co1679     N1682   2.109       .  S
Co1679     N1699   2.043       .  S
C1680      C1799   1.440       .  S
N1681      N1688   1.309       .  A
N1681      N1711   1.329       .  A
N1681     Co1714   2.167       .  S
N1682      N1718   1.315       .  A
N1683      C1712   1.347       .  A
N1683      N1693   1.324       .  A
H1684      C1709   1.081       .  S
N1685      N1706   1.319       .  A
N1686      N1704   1.323       .  A
N1686      N1691   1.321       .  A
C1687      N1691   1.343       .  A
C1687      C1715   1.454       .  S
C1687      C1807   1.465       .  S
N1688      C1703   1.329       .  A
N1688     Co1710   1.990       .  S
C1689      N1717   1.345       .  A
C1689      H1723   1.076       .  S
C1692      C1803   1.434       .  S
N1693      N1699   1.310       .  A
N1694      C1720   1.326       .  A
N1694      N1696   1.308       .  A
N1694     Co1710   2.068       .  S
N1695      C1709   1.338       .  A
N1696      N1724   1.329       .  A
N1696     Co1714   2.061       .  S
H1697      C1720   1.074       .  S
H1698      C1715   1.082       .  S
N1700     Co1714   2.108   1_445  S
N1701      N1713   1.314       .  A
N1701     Co1710   2.039   1_545  S
C1702      N1706   1.342       .  A
C1702      C1716   1.461       .  S
C1702      C1816   1.481       .  S
C1703      H1707   1.080       .  S
C1703      C1722   1.450       .  S
N1704      C1715   1.339       .  A
C1708      N1724   1.356       .  A
C1708      C1720   1.439       .  S
C1708      C1779   1.466       .  S
N1711      C1722   1.362       .  A
C1712      C1776   1.466       .  S
C1722      C1812   1.490       .  S
C1725      C1727   1.574       .  S
C1725      C1729   1.547       .  S
C1725      C1728   1.538       .  S
C1725      C1771   1.538       .  S
C1726      C1730   1.577       .  S
C1726      C1732   1.553       .  S
C1726      C1731   1.531       .  S
C1726      C1773   1.555       .  S
C1727      C1735   1.401       .  A
C1727      C1730   1.422       .  A
C1728      C1739   1.382       .  A
C1728      C1731   1.400       .  A
C1729      C1743   1.390       .  A
C1729      C1732   1.402       .  A
C1730      C1733   1.400       .  A
C1731      C1737   1.370       .  A
C1732      C1740   1.385       .  A
C1733      N1734   1.372       .  A
C1733      H1746   1.082       .  S
N1734      C1735   1.369       .  A
N1734      C1796   1.472       .  S
C1735      H1736   1.082       .  S
C1737      N1738   1.355       .  A
C1737      H1747   1.083       .  S
N1738      C1739   1.361       .  A
N1738      C1788   1.436       .  S
C1739      H1745   1.082       .  S
C1740      N1741   1.365       .  A
C1740      H1742   1.083       .  S
N1741      C1743   1.363       .  A
N1741      C1792   1.453       .  S
C1743      H1744   1.082       .  S
C1748      C1750   1.557       .  S
C1748      C1752   1.556       .  S
C1748      C1751   1.539       .  S
C1748      C2036   1.563       .  S
C1749      C1753   1.531       .  S
C1749      C1755   1.519       .  S
C1749      C1754   1.531       .  S
C1749      C1772   1.542       .  S
C1750      C1758   1.382       .  A
C1750      C1753   1.436       .  A
C1751      C1762   1.373       .  A
C1751      C1754   1.406       .  A
C1752      C1766   1.382       .  A
C1752      C1755   1.407       .  A
C1753      C1756   1.370       .  A
C1754      C1760   1.370       .  A
C1755      C1763   1.357       .  A
C1756      N1757   1.342       .  A
C1756      H1769   1.083       .  S
N1757      C1758   1.352       .  A
N1757      C1783   1.425       .  S
C1758      H1759   1.076       .  S
C1760      N1761   1.361       .  A
C1760      H1770   1.082       .  S
N1761      C1762   1.358       .  A
N1761      C1775   1.435       .  S
C1762      H1768   1.083       .  S
C1763      N1764   1.351       .  A
C1763      H1765   1.080       .  S
N1764      C1766   1.367       .  A
N1764      C1780   1.435       .  S
C1766      H1767   1.083       .  S
C1771      C1772   1.246       .  T
C1773      C1774   1.256       .  T
C1774      C2010   1.557       .  S
C1775      C1776   1.343       .  D
C1775      H1777   1.087       .  S
C1776      H1778   1.084       .  S
C1779      C1780   1.355       .  D
C1779      H1781   1.082       .  S
C1780      H1782   1.085       .  S
C1783      C1784   1.331       .  D
C1783      H1785   1.086       .  S
C1784      H1786   1.086       .  S
C1787      C1788   1.344       .  D
C1787      H1789   1.085       .  S
C1788      H1790   1.085       .  S
C1791      C1792   1.361       .  D
C1791      H1793   1.085       .  S
C1792      H1794   1.087       .  S
C1795      C1796   1.373       .  D
C1795      H1797   1.085       .  S
C1796      H1798   1.086       .  S
C1799      C1800   1.206   1_545  T
C1801      C1802   1.206       .  T
C1803      C1804   1.202       .  T
C1805      C1806   1.213       .  T
C1807      C1808   1.353       .  D
C1807      H1809   1.084       .  S
C1808      H1810   1.085       .  S
C1811      C1812   1.360       .  D
C1811      H1813   1.082       .  S
C1812      H1814   1.084       .  S
C1815      C1816   1.346       .  D
C1815      H1817   1.087       .  S
C1816      H1818   1.086       .  S
C1819      C1820   1.349       .  D
C1819      H1821   1.085       .  S
C1820      H2084   1.088       .  S
H1822      C2082   1.086       .  S
C1823      N1851   1.446       .  S
C1823      C1824   1.352       .  D
C1823      H2087   1.084       .  S
C1824      H1826   1.083       .  S
H1825      C2085   1.089       .  S
C1827      N1848   1.420       .  S
C1827      C1828   1.335       .  D
C1827      H2091   1.085       .  S
C1828      H1830   1.085       .  S
H1829      C2089   1.089       .  S
C1831      C1832   1.244       .  T
C1833      C1834   1.250       .  T
C1835      C1837   1.544       .  S
C1835      C1839   1.546       .  S
C1835      C1838   1.528       .  S
C1835      C2096   1.537       .  S
C1836      C1840   1.557       .  S
C1836      C1842   1.541       .  S
C1836      C1841   1.541       .  S
C1836      C2093   1.552       .  S
C1837      C1845   1.386       .  A
C1838      C1849   1.364       .  A
C1839      C1853   1.384       .  A
C1840      C1843   1.383       .  A
C1841      C1847   1.373       .  A
C1842      C1850   1.376       .  A
C1843      N1844   1.363       .  A
C1843      H1856   1.082       .  S
N1844      C2082   1.447       .  S
C1845      H1846   1.078       .  S
C1847      H1857   1.083       .  S
N1848      C1849   1.345       .  A
C1849      H1855   1.084       .  S
C1850      H1852   1.082       .  S
N1851      C1853   1.364       .  A
C1853      H1854   1.082       .  S
C1858      C1860   1.563       .  S
C1858      C1862   1.547       .  S
C1858      C1861   1.554       .  S
C1858      C2094   1.552       .  S
C1859      C1863   1.517       .  S
C1859      C1865   1.531       .  S
C1859      C1864   1.547       .  S
C1859      C2095   1.536       .  S
C1860      C1868   1.395       .  A
C1860      C1863   1.402       .  A
C1861      C1872   1.383       .  A
C1861      C1864   1.413       .  A
C1862      C1876   1.381       .  A
C1862      C1865   1.419       .  A
C1863      C1866   1.362       .  A
C1864      C1870   1.377       .  A
C1865      C1873   1.373       .  A
C1866      N1867   1.349       .  A
C1866      H1879   1.078       .  S
N1867      C1868   1.370       .  A
N1867      C2070   1.444       .  S
C1868      H1869   1.081       .  S
C1870      N1871   1.361       .  A
C1870      H1880   1.083       .  S
N1871      C1872   1.365       .  A
N1871      C2077   1.445       .  S
C1872      H1878   1.082       .  S
C1873      N1874   1.350       .  A
C1873      H1875   1.083       .  S
N1874      C1876   1.359       .  A
N1874      C2073   1.436       .  S
C1876      H1877   1.081       .  S
C1881      N1899   1.341       .  A
C1881      C1918   1.451       .  S
C1881      C2057   1.466       .  S
N1882      N1899   1.323       .  A
N1882      N1904   1.325       .  A
C1883      N1908   1.332       .  A
C1883      H1928   1.082       .  S
C1883      C1921   1.443       .  S
C1885      H1914   1.083       .  S
C1885      C1889   1.457       .  S
Co1886     N1894   2.049       .  S
Co1886     N1926   2.079       .  S
Co1886     N1902   2.115       .  S
N1887      C1925   1.348       .  A
N1887      N1894   1.323       .  A
N1887     Co1888   2.123       .  S
Co1888     N1891   2.046       .  S
Co1888     N1908   2.031       .  S
C1889      C2068   1.403       .  S
N1890      N1897   1.315       .  A
N1890      N1920   1.317       .  A
N1890     Co1923   2.103       .  S
N1892      C1921   1.358       .  A
N1892      N1902   1.331       .  A
H1893      C1918   1.082       .  S
N1894      N1915   1.318       .  A
N1895      N1913   1.316   1_554  A
N1895      N1900   1.330       .  A
C1896      N1900   1.355       .  A
C1896      C1924   1.452   1_554  S
C1896      C2081   1.489   1_554  S
N1897      C1912   1.343       .  A
N1897     Co1919   2.035       .  S
C1898      N1926   1.331       .  A
C1898      H1932   1.080       .  S
C1901      C2064   1.438       .  S
N1902      N1908   1.319       .  A
N1903      C1929   1.343       .  A
N1903      N1905   1.308       .  A
N1903     Co1919   2.117       .  S
N1904      C1918   1.344       .  A
N1905      N1933   1.320       .  A
N1905     Co1923   2.000       .  S
H1906      C1929   1.069       .  S
H1907      C1924   1.080       .  S
N1909     Co1923   1.994       .  S
N1910      N1922   1.316   1_455  A
N1910     Co1919   2.107   1_445  S
C1911      N1915   1.344       .  A
C1911      C1925   1.466       .  S
C1911      C2090   1.472       .  S
C1912      H1916   1.082       .  S
C1912      C1931   1.459       .  S
N1913      C1924   1.343       .  A
C1917      N1933   1.328       .  A
C1917      C1929   1.464       .  S
C1917      C2053   1.488       .  S
N1920      C1931   1.347       .  A
C1921      C2049   1.483       .  S
C1931      C2086   1.464       .  S
C1934      N1952   1.347       .  A
C1934      C1971   1.459       .  S
C1934      C2046   1.453       .  S
N1935      N1952   1.322       .  A
N1935      N1957   1.322       .  A
C1936      N1961   1.330       .  A
C1936      H1981   1.081       .  S
C1936      C1974   1.453       .  S
H1937      C1978   1.082       .  S
C1938      N1962   1.355       .  A
C1938      H1967   1.081   1_545  S
C1938      C1942   1.459       .  S
Co1939     N1947   2.020       .  S
Co1939     N1979   2.055       .  S
Co1939     N1955   2.155       .  S
N1940      C1978   1.351       .  A
N1940      N1947   1.318       .  A
N1940     Co1941   2.118       .  S
Co1941     N1944   2.059       .  S
Co1941     N1961   2.049       .  S
C1942      C2061   1.433       .  S
N1943      N1950   1.320       .  A
N1943      N1973   1.329       .  A
N1943     Co1976   2.110       .  S
N1944      N1980   1.317       .  A
N1945      C1974   1.364       .  A
N1945      N1955   1.335       .  A
H1946      C1971   1.082       .  S
N1947      N1968   1.317       .  A
N1948      N1966   1.321       .  A
N1948      N1953   1.326       .  A
C1949      N1953   1.348       .  A
C1949      C1977   1.456       .  S
C1949      C2069   1.479       .  S
N1950      C1965   1.333       .  A
N1950     Co1972   2.032       .  S
C1951      N1979   1.338       .  A
C1951      H1985   1.082       .  S
C1954      C2065   1.437       .  S
N1955      N1961   1.324       .  A
N1956      C1982   1.347       .  A
N1956      N1958   1.320       .  A
N1956     Co1972   2.129       .  S
N1957      C1971   1.339       .  A
N1958      N1986   1.313       .  A
N1958     Co1976   2.028       .  S
H1959      C1982   1.081       .  S
H1960      C1977   1.082       .  S
N1962     Co1976   2.092   1_545  S
N1963      N1975   1.310   1_455  A
N1963     Co1972   2.030   1_455  S
C1964      N1968   1.335       .  A
C1964      C1978   1.474       .  S
C1964      C2078   1.481       .  S
C1965      H1969   1.082       .  S
C1965      C1984   1.452       .  S
N1966      C1977   1.342       .  A
C1970      N1986   1.337       .  A
C1970      C1982   1.474       .  S
C1970      C2041   1.465       .  S
N1973      C1984   1.354       .  A
C1974      C2038   1.498       .  S
C1984      C2074   1.464       .  S
C1987      C1989   1.564       .  S
C1987      C1991   1.550       .  S
C1987      C1990   1.545       .  S
C1987      C2033   1.557       .  S
C1988      C1992   1.518       .  S
C1988      C1994   1.546       .  S
C1988      C1993   1.553       .  S
C1988      C2035   1.564       .  S
C1989      C1997   1.398       .  A
C1989      C1992   1.407       .  A
C1990      C2001   1.376       .  A
C1990      C1993   1.415       .  A
C1991      C2005   1.382       .  A
C1991      C1994   1.416       .  A
C1992      C1995   1.350       .  A
C1993      C1999   1.382       .  A
C1994      C2002   1.374       .  A
C1995      N1996   1.347       .  A
C1995      H2008   1.075       .  S
N1996      C1997   1.370       .  A
N1996      C2058   1.443       .  S
C1997      H1998   1.082       .  S
C1999      N2000   1.363       .  A
C1999      H2009   1.083       .  S
N2000      C2001   1.359       .  A
N2000      C2050   1.441       .  S
C2001      H2007   1.082       .  S
C2002      N2003   1.359       .  A
C2002      H2004   1.083       .  S
N2003      C2005   1.363       .  A
N2003      C2054   1.442       .  S
C2005      H2006   1.082       .  S
C2010      C2012   1.538       .  S
C2010      C2014   1.545       .  S
C2010      C2013   1.549       .  S
C2011      C2015   1.523       .  S
C2011      C2017   1.541       .  S
C2011      C2016   1.563       .  S
C2011      C2034   1.558       .  S
C2012      C2020   1.378       .  A
C2012      C2015   1.400       .  A
C2013      C2024   1.374       .  A
C2013      C2016   1.418       .  A
C2014      C2028   1.381       .  A
C2014      C2017   1.429       .  A
C2015      C2018   1.363       .  A
C2016      C2022   1.388       .  A
C2017      C2025   1.375       .  A
C2018      N2019   1.356       .  A
C2018      H2031   1.080       .  S
N2019      C2020   1.360       .  A
N2019      C2045   1.434       .  S
C2020      H2021   1.083       .  S
C2022      N2023   1.367       .  A
C2022      H2032   1.082       .  S
N2023      C2024   1.359       .  A
N2023      C2037   1.441       .  S
C2024      H2030   1.083       .  S
C2025      N2026   1.351       .  A
C2025      H2027   1.083       .  S
N2026      C2028   1.357       .  A
N2026      C2042   1.438       .  S
C2028      H2029   1.081       .  S
C2033      C2034   1.256       .  T
C2035      C2036   1.260   1_556  T
C2037      C2038   1.356       .  D
C2037      H2039   1.084       .  S
C2038      H2040   1.086       .  S
C2041      C2042   1.343       .  D
C2041      H2043   1.083       .  S
C2042      H2044   1.089       .  S
C2045      C2046   1.343       .  D
C2045      H2047   1.087       .  S
C2046      H2048   1.082       .  S
C2049      C2050   1.351       .  D
C2049      H2051   1.083       .  S
C2050      H2052   1.086       .  S
C2053      C2054   1.349       .  D
C2053      H2055   1.080       .  S
C2054      H2056   1.087       .  S
C2057      C2058   1.353       .  D
C2057      H2059   1.085       .  S
C2058      H2060   1.086       .  S
C2061      C2062   1.203       .  T
C2063      C2064   1.203       .  T
C2065      C2066   1.203       .  T
C2067      C2068   1.192       .  T
C2069      C2070   1.356       .  D
C2069      H2071   1.085       .  S
C2070      H2072   1.082       .  S
C2073      C2074   1.341       .  D
C2073      H2075   1.089       .  S
C2074      H2076   1.083       .  S
C2077      C2078   1.349       .  D
C2077      H2079   1.088       .  S
C2078      H2080   1.082       .  S
C2081      C2082   1.352       .  D
C2081      H2083   1.084   1_556  S
C2085      C2086   1.340       .  D
C2086      H2088   1.085       .  S
C2089      C2090   1.346       .  D
C2090      H2092   1.084   1_556  S
C2093      C2094   1.254       .  T
C2095      C2096   1.244       .  T
