geometry optimzed in LAMMPS
_audit_creation_date              2020-11-30 
_audit_creation_method            'lammps2cif' 
_symmetry_space_group_name_H-M    'P1' 
_symmetry_Int_Tables_number       1 
_symmetry_cell_setting            triclinic 
loop_ 
_symmetry_equiv_pos_as_xyz 
  x,y,z 
_cell_length_a                    37.62617724206063 
_cell_length_b                    49.51739928266362 
_cell_length_c                    35.432690482168645 
_cell_angle_alpha                 91.92830500699439 
_cell_angle_beta                  90.1693248139953 
_cell_angle_gamma                 90.06579121055901 
loop_ 
_atom_site_label 
_atom_site_type_symbol 
_atom_site_fract_x 
_atom_site_fract_y 
_atom_site_fract_z 
_atom_site_charge 
C1          C  0.69222179  0.28743235  0.00634922     0.03330
C2          C  0.67662702  0.26166105  0.00672539    -0.12820
C3          C  0.63953393  0.25889227  0.00776623     0.00830
C4          C  0.61808532  0.28200286  0.00790309    -0.11340
C5          C  0.63336065  0.30777237  0.00669298     0.03320
C6          C  0.67042939  0.31048207  0.00649624    -0.10770
H7          H  0.69329253  0.24381317  0.00581346     0.08920
H8          H  0.58939315  0.27989183  0.00797163     0.06450
H9          H  0.68227237  0.33039613  0.00533315     0.06290
C10         C  0.69349519  0.28845570  0.25640700     0.03330
C11         C  0.67075760  0.31065458  0.25167501    -0.12820
C12         C  0.63378442  0.30699614  0.25057205     0.00830
C13         C  0.61958023  0.28099002  0.25283498    -0.11340
C14         C  0.64170099  0.25866173  0.25764646     0.03320
C15         C  0.67871210  0.26252919  0.25991256    -0.10770
H16         H  0.68178137  0.33072284  0.24897881     0.08920
H17         H  0.59103632  0.27813846  0.25092928     0.06450
H18         H  0.69598424  0.24536112  0.26391461     0.06290
Zn19       Zn  0.56746729  0.09829465  0.47219282     1.49720
Zn20       Zn  0.54725647  0.05561536  0.03379863     1.49360
Zn21       Zn  0.51749533  0.11621920  0.03851100     1.49110
Zn22       Zn  0.48869878  0.07506031  0.47352617     1.49480
O23         O  0.52987143  0.08596891  0.00463425    -1.83920
O24         O  0.61274161  0.08061003  0.48480816    -0.74550
O25         O  0.54075948  0.06376596  0.09008482    -0.74370
O26         O  0.55011920  0.14826504  0.03306769    -0.73890
O27         O  0.60005434  0.04851709  0.02390234    -0.74570
O28         O  0.57810089  0.13761621  0.47965353    -0.74170
O29         O  0.51796955  0.10529902  0.09273462    -0.74750
O30         O  0.44617866  0.09924533  0.48536025    -0.74140
O31         O  0.51872626  0.02192440  0.02055796    -0.74900
O32         O  0.46904074  0.12944428  0.02612025    -0.74290
O33         O  0.47586330  0.03618949  0.48254194    -0.74760
O34         O  0.50007540  0.07745634  0.41747076    -0.74670
O35         O  0.55661673  0.09075598  0.41750490    -0.74450
C36         C  0.62274128  0.06115327  0.50448870     0.77330
C37         C  0.52843584  0.08410515  0.10877344     0.77830
C38         C  0.57123103  0.15429658  0.00664945     0.76780
C39         C  0.44328191  0.12082893  0.00578637     0.77160
C40         C  0.49074831  0.01756569  0.00085897     0.78300
C41         C  0.52850928  0.08335378  0.40007008     0.77350
Zn42       Zn  0.54828064  0.05496816  0.28392340     1.49720
Zn43       Zn  0.48932578  0.07493909  0.22409446     1.49360
Zn44       Zn  0.51981501  0.11521849  0.28893611     1.49110
Zn45       Zn  0.56764644  0.09812376  0.22194342     1.49480
O46         O  0.53088703  0.08509950  0.25469390    -1.83920
O47         O  0.51970759  0.02128874  0.27050233    -0.74550
O48         O  0.44756674  0.09974020  0.23717937    -0.74370
O49         O  0.51768394  0.10396564  0.34259450    -0.73890
O50         O  0.47654646  0.03594072  0.23304476    -0.74570
O51         O  0.54220666  0.06306000  0.34034971    -0.74170
O52         O  0.47266034  0.13070019  0.27524457    -0.74750
O53         O  0.57555801  0.13791455  0.22923141    -0.74140
O54         O  0.50001334  0.07792029  0.16770409    -0.74900
O55         O  0.55609167  0.14513991  0.28698287    -0.74290
O56         O  0.55656952  0.09106608  0.16734104    -0.74760
O57         O  0.61389920  0.08057573  0.23374327    -0.74670
O58         O  0.60090877  0.04844976  0.27373642    -0.74450
C59         C  0.49153988  0.01713547  0.25100488     0.77330
C60         C  0.44600664  0.12202915  0.25625410     0.77830
C61         C  0.52891162  0.08312843  0.35882557     0.76780
C62         C  0.57367814  0.15295498  0.25884605     0.77160
C63         C  0.52826847  0.08401503  0.15006349     0.78300
C64         C  0.62336215  0.06107132  0.25392642     0.77350
C65         C  0.27328799  0.21878841  0.99120433     0.03330
C66         C  0.29541668  0.19650649  0.99643475    -0.12820
C67         C  0.33224107  0.20006048  0.99878083     0.00830
C68         C  0.34672610  0.22608411  0.99744151    -0.11340
C69         C  0.32492403  0.24845830  0.99100129     0.03320
C70         C  0.28809420  0.24450555  0.98709584    -0.10770
H71         H  0.28403027  0.17651884  0.99878093     0.08920
H72         H  0.37517256  0.22882098  0.00078635     0.06450
H73         H  0.27083999  0.26150421  0.98196698     0.06290
C74         C  0.27374547  0.21934975  0.24716906     0.03330
C75         C  0.29677840  0.19714029  0.24956405    -0.12820
C76         C  0.33371420  0.20106104  0.24962476     0.00830
C77         C  0.34746553  0.22730686  0.24767904    -0.11340
C78         C  0.32462083  0.24954213  0.24579133     0.03320
C79         C  0.28780047  0.24549489  0.24516658    -0.10770
H80         H  0.28600600  0.17693318  0.25151414     0.08920
H81         H  0.37599369  0.23046932  0.24819668     0.06450
H82         H  0.27010799  0.26268781  0.24366550     0.06290
Zn83       Zn  0.44871699  0.39184949  0.46143149     1.49720
Zn84       Zn  0.47680005  0.43289947  0.02690103     1.49360
Zn85       Zn  0.41943064  0.45200280  0.46539904     1.49110
Zn86       Zn  0.39805679  0.40957314  0.02768115     1.49480
O87         O  0.43596875  0.42198948  0.99538525    -1.83920
O88         O  0.49658984  0.37758616  0.47590002    -0.74550
O89         O  0.48979054  0.47176251  0.01796168    -0.74370
O90         O  0.42598038  0.44368338  0.40954769    -0.73890
O91         O  0.51918892  0.40862787  0.01573625    -0.74570
O92         O  0.45039912  0.40275514  0.40723493    -0.74170
O93         O  0.44762005  0.48581872  0.47891716    -0.74750
O94         O  0.35272164  0.42927976  0.01711999    -0.74140
O95         O  0.46532599  0.43008398  0.08283282    -0.74900
O96         O  0.36683506  0.45872409  0.47347330    -0.74290
O97         O  0.40984520  0.41448590  0.08246384    -0.74760
O98         O  0.38757197  0.37029255  0.01835288    -0.74670
O99         O  0.41344184  0.36114871  0.46388356    -0.74450
C100        C  0.52215266  0.38659793  0.99634845     0.77330
C101        C  0.47523302  0.49028802  0.49916469     0.77830
C102        C  0.43903400  0.42359500  0.39103394     0.76780
C103        C  0.34412348  0.44778708  0.99477291     0.77160
C104        C  0.43758366  0.42243516  0.10005763     0.78300
C105        C  0.39261361  0.35435227  0.99009152     0.77350
Zn106      Zn  0.44573875  0.39076173  0.21246411     1.49720
Zn107      Zn  0.47708387  0.43203018  0.27557984     1.49360
Zn108      Zn  0.41979986  0.45221044  0.21501682     1.49110
Zn109      Zn  0.39613369  0.41205771  0.27873015     1.49480
O110        O  0.43485852  0.42193549  0.24548145    -1.83920
O111        O  0.49411723  0.37662186  0.22409524    -0.74550
O112        O  0.49046386  0.47106519  0.26730073    -0.74370
O113        O  0.42797476  0.44380775  0.15956369    -0.73890
O114        O  0.51894823  0.40750401  0.26228001    -0.74570
O115        O  0.44436939  0.40057915  0.15764147    -0.74170
O116        O  0.44809781  0.48573699  0.22902468    -0.74750
O117        O  0.35231532  0.43306930  0.26823680    -0.74140
O118        O  0.46697219  0.42868263  0.33176307    -0.74900
O119        O  0.36709512  0.45980009  0.22160320    -0.74290
O120        O  0.40951553  0.41783772  0.33308587    -0.74760
O121        O  0.38151824  0.37327305  0.27048205    -0.74670
O122        O  0.41232797  0.35969741  0.22011318    -0.74450
C123        C  0.52076398  0.38536118  0.24296019     0.77330
C124        C  0.47589145  0.48988845  0.24904868     0.77830
C125        C  0.43714715  0.42240422  0.14125903     0.76780
C126        C  0.34416383  0.45047388  0.24416020     0.77160
C127        C  0.43862144  0.42357001  0.34981609     0.78300
C128        C  0.38924290  0.35532904  0.24534126     0.77350
C129        C  0.77532607  0.04022356  0.51039408     0.03330
C130        C  0.78900562  0.01381536  0.50761301    -0.12820
C131        C  0.82584075  0.00938490  0.50857517     0.00830
C132        C  0.84902631  0.03149324  0.51128697    -0.11340
C133        C  0.83586203  0.05788875  0.51257339     0.03320
C134        C  0.79901995  0.06225226  0.51306225    -0.10770
H135        H  0.77103904  0.49675952  0.50457243     0.08920
H136        H  0.87751648  0.02815799  0.51125840     0.06450
H137        H  0.78883677  0.08272678  0.51431102     0.06290
C138        C  0.77465724  0.04126913  0.25630217     0.03330
C139        C  0.78869447  0.01505809  0.25424448    -0.12820
C140        C  0.82554059  0.01116238  0.25313588     0.00830
C141        C  0.84828373  0.03355496  0.25351506    -0.11340
C142        C  0.83455283  0.05987674  0.25594798     0.03320
C143        C  0.79761195  0.06367037  0.25756311    -0.10770
H144        H  0.77100297  0.49775500  0.25346133     0.08920
H145        H  0.87679747  0.03047647  0.25230799     0.06450
H146        H  0.78675574  0.08393106  0.25935968     0.06290
Zn147      Zn  0.91873333  0.30687065  0.03099404     1.49720
Zn148      Zn  0.89667896  0.34857762  0.46868548     1.49360
Zn149      Zn  0.94757780  0.36778156  0.03516128     1.49110
Zn150      Zn  0.97678348  0.32668332  0.47077795     1.49480
O151        O  0.93523842  0.33726020  0.00138726    -1.83920
O152        O  0.86688000  0.29781622  0.02000964    -0.74550
O153        O  0.88422639  0.38738815  0.47682211    -0.74370
O154        O  0.94647818  0.35735468  0.08956518    -0.73890
O155        O  0.85186139  0.32850027  0.47915670    -0.74570
O156        O  0.92411994  0.31565698  0.08719141    -0.74170
O157        O  0.91466646  0.39939969  0.02849776    -0.74750
O158        O  0.01926900  0.35107123  0.48331757    -0.74140
O159        O  0.90928921  0.34374082  0.41423587    -0.74900
O160        O  0.99642395  0.38119035  0.02414237    -0.74290
O161        O  0.96569293  0.33011446  0.41467530    -0.74760
O162        O  0.98983562  0.28761064  0.47991195    -0.74670
O163        O  0.94805039  0.27368106  0.01922610    -0.74450
C164        C  0.84353533  0.30884086  0.99948602     0.77330
C165        C  0.89217889  0.40457678  0.00284434     0.77830
C166        C  0.93604710  0.33623337  0.10576269     0.76780
C167        C  0.02219457  0.37257869  0.00399825     0.77160
C168        C  0.93767290  0.33698640  0.39708423     0.78300
C169        C  0.97561074  0.26920196  0.99921336     0.77350
Zn170      Zn  0.89546981  0.34848338  0.21867496     1.49720
Zn171      Zn  0.91991910  0.30801763  0.28199218     1.49360
Zn172      Zn  0.97644576  0.32814044  0.22103014     1.49110
Zn173      Zn  0.94594019  0.36925948  0.28491987     1.49480
O174        O  0.93467721  0.33832539  0.25151125    -1.83920
O175        O  0.85161265  0.32778652  0.23015865    -0.74550
O176        O  0.94795775  0.27455405  0.26827546    -0.74370
O177        O  0.96483871  0.33110747  0.16480302    -0.73890
O178        O  0.86724614  0.30064285  0.27618261    -0.74570
O179        O  0.90749728  0.34233514  0.16410978    -0.74170
O180        O  0.99030408  0.28908775  0.23008863    -0.74750
O181        O  0.99457850  0.38288230  0.27392609    -0.74140
O182        O  0.92850225  0.31602574  0.33730298    -0.74900
O183        O  0.01852555  0.35300443  0.23413003    -0.74290
O184        O  0.94445343  0.35934033  0.33982035    -0.74760
O185        O  0.91315631  0.40068574  0.27693999    -0.74670
O186        O  0.88173626  0.38751148  0.22655805    -0.74450
C187        C  0.84397563  0.31028688  0.25424488     0.77330
C188        C  0.97585830  0.27036797  0.24867626     0.77830
C189        C  0.93620763  0.33629895  0.14704111     0.76780
C190        C  0.02103641  0.37458291  0.25466391     0.77160
C191        C  0.93749384  0.33734946  0.35590776     0.78300
C192        C  0.89003128  0.40534514  0.25171502     0.77350
C193        C  0.19382694  0.46998784  0.99366574     0.03330
C194        C  0.17141607  0.44764172  0.99797133    -0.12820
C195        C  0.13462062  0.45129882  0.00108802     0.00830
C196        C  0.12041768  0.47744411  0.00112184    -0.11340
C197        C  0.14234485  0.99992005  0.99553666     0.03320
C198        C  0.17915430  0.49594781  0.99134778    -0.10770
H199        H  0.18256181  0.42749666  0.99885740     0.08920
H200        H  0.09201308  0.48020739  0.00451871     0.06450
H201        H  0.19646220  0.01305086  0.98692778     0.06290
C202        C  0.19377562  0.47157902  0.23957805     0.03330
C203        C  0.17099476  0.44969098  0.24551702    -0.12820
C204        C  0.13405331  0.45344670  0.24580707     0.00830
C205        C  0.12018725  0.47948400  0.24167965    -0.11340
C206        C  0.14270293  0.00160583  0.23611269     0.03320
C207        C  0.17956076  0.49732535  0.23405486    -0.10770
H208        H  0.18198680  0.42980658  0.24980602     0.08920
H209        H  0.09169378  0.48256604  0.24320299     0.06450
H210        H  0.19725598  0.01414975  0.22929537     0.06290
Zn211      Zn  0.01965588  0.14336229  0.46331585     1.49720
Zn212      Zn  0.06881685  0.16164426  0.03034205     1.49360
Zn213      Zn  0.04768828  0.20387324  0.46723107     1.49110
Zn214      Zn  0.99053877  0.18499032  0.02793689     1.49480
O215        O  0.03138168  0.17384844  0.99717349    -1.83920
O216        O  0.05530957  0.11298096  0.46716044    -0.74550
O217        O  0.11427596  0.18036441  0.01861666    -0.74370
O218        O  0.04046173  0.19586592  0.41147353    -0.73890
O219        O  0.07842897  0.12183472  0.02326461    -0.74570
O220        O  0.01883103  0.15399336  0.40896916    -0.74170
O221        O  0.10023306  0.21022779  0.47541573    -0.74750
O222        O  0.97618316  0.22337036  0.01659920    -0.74140
O223        O  0.05747894  0.16880629  0.08481901    -0.74900
O224        O  0.01990792  0.23776398  0.48000491    -0.74290
O225        O  0.00199344  0.18418746  0.08376498    -0.74760
O226        O  0.95002447  0.15856041  0.01982809    -0.74670
O227        O  0.97193536  0.12855664  0.47772809    -0.74450
C228        C  0.07462802  0.10596715  0.99462014     0.77330
C229        C  0.12294717  0.19885976  0.99634698     0.77830
C230        C  0.02872635  0.17530601  0.39287798     0.76780
C231        C  0.99137637  0.24202825  0.99854425     0.77160
C232        C  0.02967291  0.17721196  0.10166788     0.78300
C233        C  0.94743648  0.13657904  0.50019061     0.77350
Zn234      Zn  0.04868946  0.20485380  0.21770924     1.49720
Zn235      Zn  0.06779893  0.16119993  0.27977311     1.49360
Zn236      Zn  0.99056282  0.18631297  0.27818902     1.49110
Zn237      Zn  0.01755263  0.14527560  0.21212352     1.49480
O238        O  0.03094204  0.17482903  0.24695672    -1.83920
O239        O  0.10108007  0.21079094  0.22789769    -0.74550
O240        O  0.05517504  0.16522523  0.33439377    -0.74370
O241        O  0.97679098  0.22469466  0.26648303    -0.73890
O242        O  0.11360351  0.18073848  0.27142740    -0.74570
O243        O  0.02040567  0.23891311  0.22953155    -0.74170
O244        O  0.00232059  0.18526499  0.33418645    -0.74750
O245        O  0.96956629  0.13097726  0.22605533    -0.74140
O246        O  0.07836357  0.12213871  0.26844446    -0.74900
O247        O  0.94933311  0.16039099  0.26994252    -0.74290
O248        O  0.05284101  0.11444299  0.21332439    -0.74760
O249        O  0.01615978  0.15694571  0.15863334    -0.74670
O250        O  0.04362826  0.19678294  0.16157425    -0.74450
C251        C  0.12303050  0.19930266  0.24960665     0.77330
C252        C  0.02865054  0.17544067  0.35170032     0.77830
C253        C  0.99183696  0.24323124  0.24806076     0.76780
C254        C  0.94570930  0.13900396  0.24923139     0.77160
C255        C  0.07383478  0.10705203  0.23915607     0.78300
C256        C  0.02928750  0.17729890  0.14278293     0.77350
C257        C  0.13787717  0.04964595  0.26076384    -0.01650
C258        C  0.12746670  0.02927078  0.23427907     0.08030
C259        C  0.10128614  0.03502141  0.20717291    -0.01760
C260        C  0.08309169  0.05995305  0.20883657    -0.01760
C261        C  0.09344559  0.08065033  0.23559556     0.08170
C262        C  0.12288800  0.07561482  0.25972817    -0.01960
Br263      Br  0.14562495  0.10400471  0.29024527    -0.00510
Br264      Br  0.17083588  0.04178066  0.30086680    -0.00580
Br265      Br  0.04345609  0.06412831  0.17455944    -0.00540
Br266      Br  0.09105396  0.00883327  0.16678975    -0.00520
C267        C  0.09903413  0.03249274  0.46781172    -0.01650
C268        C  0.12641571  0.02741351  0.99391353     0.08030
C269        C  0.13769322  0.04838075  0.01908376    -0.01760
C270        C  0.12280858  0.07439534  0.01724262    -0.01760
C271        C  0.09301305  0.07903525  0.99346180     0.08170
C272        C  0.08104400  0.05747799  0.46898277    -0.01960
Br273      Br  0.03887342  0.06048040  0.43793311    -0.00510
Br274      Br  0.08694139  0.00552980  0.42900692    -0.00580
Br275      Br  0.14585295  0.10337576  0.04624346    -0.00540
Br276      Br  0.17198873  0.04133618  0.05823481    -0.00520
C277        C  0.07899591  0.39017443  0.22503698    -0.01650
C278        C  0.05440135  0.39133172  0.25549848     0.08030
C279        C  0.06047919  0.41061261  0.28563967    -0.01760
C280        C  0.08760107  0.43007133  0.28304296    -0.01760
C281        C  0.10939330  0.43044522  0.25090983     0.08170
C282        C  0.10600053  0.40985769  0.22270554    -0.01960
Br283      Br  0.13700977  0.40964365  0.17930612    -0.00510
Br284      Br  0.07635237  0.36256592  0.18516196    -0.00580
Br285      Br  0.09519452  0.45649433  0.32381766    -0.00540
Br286      Br  0.03306261  0.41069109  0.33183647    -0.00520
C287        C  0.09472715  0.42127645  0.03728789    -0.01650
C288        C  0.11028614  0.42790665  0.00278608     0.08030
C289        C  0.10018603  0.41382686  0.46924163    -0.01760
C290        C  0.07280990  0.39439963  0.46972286    -0.01760
C291        C  0.05547377  0.38885219  0.00404318     0.08170
C292        C  0.06776247  0.40157205  0.03808158    -0.01960
Br293      Br  0.04830144  0.39191417  0.08622829    -0.00510
Br294      Br  0.10985383  0.43994054  0.08330830    -0.00580
Br295      Br  0.05760338  0.37743440  0.42250893    -0.00540
Br296      Br  0.12235056  0.42263827  0.42210465    -0.00520
C297        C  0.88353558  0.08665207  0.28707308    -0.01650
C298        C  0.85942092  0.08311730  0.25671164     0.08030
C299        C  0.86149849  0.10017905  0.22564190    -0.01760
C300        C  0.88879899  0.11957892  0.22403445    -0.01760
C301        C  0.91395916  0.12200382  0.25342059     0.08170
C302        C  0.91085026  0.10596525  0.28532604    -0.01960
Br303      Br  0.94570941  0.10905820  0.32536454    -0.00510
Br304      Br  0.87954917  0.06466128  0.33085545    -0.00580
Br305      Br  0.89233669  0.14259667  0.18133463    -0.00540
Br306      Br  0.82848795  0.09595990  0.18412199    -0.00520
C307        C  0.84194860  0.46898490  0.28561735    -0.01650
C308        C  0.84061941  0.48363907  0.25228281     0.08030
C309        C  0.85487047  0.47248981  0.21855107    -0.01760
C310        C  0.87085107  0.44679384  0.21817961    -0.01760
C311        C  0.87246042  0.43207405  0.25167432     0.08170
C312        C  0.85758404  0.44318888  0.28532199    -0.01960
Br313      Br  0.85713031  0.42279060  0.33086943    -0.00510
Br314      Br  0.82323226  0.48472556  0.33201317    -0.00580
Br315      Br  0.89222091  0.43269990  0.17209292    -0.00540
Br316      Br  0.85253198  0.49266609  0.17291578    -0.00520
C317        C  0.86916534  0.09141665  0.47521489    -0.01650
C318        C  0.86120521  0.08061999  0.51051789     0.08030
C319        C  0.88028419  0.08944177  0.04289259    -0.01760
C320        C  0.90767132  0.10866029  0.03987782    -0.01760
C321        C  0.91587958  0.11921463  0.50438220     0.08170
C322        C  0.89604943  0.11094879  0.47224527    -0.01960
Br323      Br  0.90569388  0.12644733  0.42404130    -0.00510
Br324      Br  0.84529405  0.07788418  0.43028156    -0.00580
Br325      Br  0.93586362  0.11859341  0.08383041    -0.00540
Br326      Br  0.87006341  0.07393084  0.09089916    -0.00520
C327        C  0.83598024  0.46389494  0.03561684    -0.01650
C328        C  0.84069510  0.48172843  0.50581325     0.08030
C329        C  0.86154982  0.47372614  0.47431028    -0.01760
C330        C  0.87863383  0.44846987  0.47337173    -0.01760
C331        C  0.87432006  0.43093702  0.50353777     0.08170
C332        C  0.85230684  0.43839102  0.03416572    -0.01960
Br333      Br  0.84348251  0.41313250  0.07348996    -0.00510
Br334      Br  0.80879557  0.47462434  0.07951753    -0.00580
Br335      Br  0.90917799  0.43838438  0.43152462    -0.00540
Br336      Br  0.86642775  0.99719314  0.43215068    -0.00520
C337        C  0.25027697  0.45791064  0.20738828    -0.01650
C338        C  0.23268017  0.46765368  0.24007966     0.08030
C339        C  0.25208137  0.47310322  0.27353778    -0.01760
C340        C  0.28903938  0.46898229  0.27425524    -0.01760
C341        C  0.30664191  0.45881471  0.24170506     0.08170
C342        C  0.28718027  0.45335835  0.20818955    -0.01960
Br343      Br  0.31038635  0.43747071  0.16429952    -0.00510
Br344      Br  0.22339065  0.44976413  0.16203433    -0.00580
Br345      Br  0.31562050  0.47742573  0.31985494    -0.00540
Br346      Br  0.22773077  0.48473774  0.31900069    -0.00520
C347        C  0.28657140  0.45157677  0.45980210    -0.01650
C348        C  0.30652512  0.45608989  0.99322013     0.08030
C349        C  0.28969546  0.46632929  0.02613988    -0.01760
C350        C  0.25289788  0.47121606  0.02603629    -0.01760
C351        C  0.23280373  0.46620915  0.99291141     0.08170
C352        C  0.24974607  0.45667122  0.45967656    -0.01960
Br353      Br  0.22221758  0.45008023  0.41430349    -0.00510
Br354      Br  0.30916154  0.43677314  0.41487189    -0.00580
Br355      Br  0.22973412  0.48362945  0.07179875    -0.00540
Br356      Br  0.31725704  0.47407253  0.07125880    -0.00520
C357        C  0.21780923  0.20314217  0.21554421    -0.01650
C358        C  0.23482357  0.21531706  0.24727473     0.08030
C359        C  0.21465269  0.22363031  0.27909793    -0.01760
C360        C  0.17772757  0.21913154  0.27950931    -0.01760
C361        C  0.16092507  0.20643555  0.24810060     0.08170
C362        C  0.18094791  0.19855494  0.21605352    -0.01960
Br363      Br  0.15811617  0.18014188  0.17358512    -0.00510
Br364      Br  0.24485616  0.19319650  0.17105693    -0.00580
Br365      Br  0.14996318  0.23057478  0.32282959    -0.00540
Br366      Br  0.23771925  0.24054219  0.32250856    -0.00520
C367        C  0.35244013  0.28914631  0.27973889    -0.01650
C368        C  0.33943976  0.27715334  0.24585217     0.08030
C369        C  0.34127160  0.29123914  0.21207024    -0.01760
C370        C  0.35676427  0.31712747  0.21200274    -0.01760
C371        C  0.37128149  0.32873700  0.24567131     0.08170
C372        C  0.36887774  0.31465041  0.27963370    -0.01960
Br373      Br  0.38986841  0.32922757  0.32586297    -0.00510
Br374      Br  0.34698722  0.27076112  0.32654546    -0.00580
Br375      Br  0.35646590  0.33699337  0.16598283    -0.00540
Br376      Br  0.32296340  0.27476964  0.16579792    -0.00520
C377        C  0.21600238  0.21899496  0.02614621    -0.01650
C378        C  0.23444375  0.21531484  0.99183594     0.08030
C379        C  0.21606005  0.20740358  0.45864803    -0.01760
C380        C  0.17917890  0.20290377  0.45978122    -0.01760
C381        C  0.16068146  0.20645866  0.99419410     0.08170
C382        C  0.17911534  0.21475947  0.02729644    -0.01960
Br383      Br  0.15380994  0.22061036  0.07420961    -0.00510
Br384      Br  0.24159826  0.22867651  0.07191624    -0.00580
Br385      Br  0.15465602  0.18984906  0.41481669    -0.00540
Br386      Br  0.24184555  0.20173723  0.41210030    -0.00520
C387        C  0.36863620  0.28075973  0.46347525    -0.01650
C388        C  0.34079435  0.27591306  0.98898494     0.08030
C389        C  0.32880026  0.29716314  0.01317188    -0.01760
C390        C  0.34345221  0.32319560  0.01087015    -0.01760
C391        C  0.37392964  0.32757091  0.98814646     0.08170
C392        C  0.38644972  0.30583797  0.46445152    -0.01960
Br393      Br  0.42893517  0.30875810  0.43411624    -0.00510
Br394      Br  0.38181437  0.25325968  0.42595857    -0.00580
Br395      Br  0.31906315  0.35252988  0.03758115    -0.00540
Br396      Br  0.29399810  0.29055421  0.05188711    -0.00520
C397        C  0.67927753  0.04928314  0.28907819    -0.01650
C398        C  0.66156640  0.05361688  0.25449483     0.08030
C399        C  0.68128296  0.05292684  0.22049069    -0.01760
C400        C  0.71828463  0.04904492  0.22131224    -0.01760
C401        C  0.73578591  0.04520709  0.25580538     0.08170
C402        C  0.71626326  0.04487603  0.28956983    -0.01960
Br403      Br  0.74066234  0.53901939  0.33656380    -0.00510
Br404      Br  0.65383686  0.05110536  0.33631375    -0.00580
Br405      Br  0.74537995  0.04912284  0.17516477    -0.00540
Br406      Br  0.65785053  0.05628217  0.17226965    -0.00520
C407        C  0.40421351  0.15507445  0.28853461    -0.01650
C408        C  0.41318432  0.13893858  0.25609398     0.08030
C409        C  0.39227076  0.14104928  0.22293450    -0.01760
C410        C  0.36518312  0.16065152  0.22136852    -0.01760
C411        C  0.35845290  0.17800659  0.25279475     0.08170
C412        C  0.37713561  0.17454612  0.28669670    -0.01960
Br413      Br  0.36556377  0.19679243  0.33073752    -0.00510
Br414      Br  0.42799960  0.15048521  0.33634214    -0.00580
Br415      Br  0.33850394  0.16486029  0.17536472    -0.00540
Br416      Br  0.40122407  0.11849927  0.17847186    -0.00520
C417        C  0.68475035  0.06338771  0.47624903    -0.01330
C418        C  0.66159330  0.05405193  0.50494822     0.08030
C419        C  0.67662964  0.03927917  0.03482249    -0.01760
C420        C  0.71371301  0.03531563  0.03684898    -0.01760
C421        C  0.73627550  0.04480335  0.50853268     0.08170
C422        C  0.72152838  0.05834203  0.47795915    -0.01960
Br423      Br  0.75173857  0.06920426  0.43712617    -0.00510
Br424      Br  0.66780112  0.08279837  0.43302457    -0.00580
Br425      Br  0.73385413  0.51801510  0.07990444    -0.00540
Br426      Br  0.64782115  0.52444136  0.07431271    -0.00520
C427        C  0.39097402  0.14067086  0.47134504    -0.01650
C428        C  0.41012754  0.13722253  0.00537179     0.08030
C429        C  0.39968125  0.15213288  0.03839620    -0.01760
C430        C  0.37313643  0.17199061  0.03648378    -0.01760
C431        C  0.35614996  0.17666100  0.00200383     0.08170
C432        C  0.36405975  0.16035667  0.46983052    -0.01960
Br433      Br  0.33943351  0.16635411  0.42295185    -0.00510
Br434      Br  0.40254603  0.12023405  0.42565524    -0.00580
Br435      Br  0.36034789  0.19346909  0.08089440    -0.00540
Br436      Br  0.42098329  0.14545103  0.08685006    -0.00520
C437        C  0.74851907  0.30885045  0.28629953    -0.01650
C438        C  0.73271998  0.29242888  0.25745951     0.08030
C439        C  0.75449143  0.28065534  0.22889105    -0.01760
C440        C  0.79143598  0.28492227  0.22950122    -0.01760
C441        C  0.80665961  0.30208013  0.25741956     0.08170
C442        C  0.78524121  0.31419271  0.28567591    -0.01960
Br443      Br  0.80604703  0.33963855  0.32188544    -0.00510
Br444      Br  0.72023565  0.32415982  0.32681706    -0.00580
Br445      Br  0.82146033  0.26783710  0.19159255    -0.00540
Br446      Br  0.73404903  0.26093925  0.18658681    -0.00520
C447        C  0.57444758  0.36662795  0.27650206    -0.01650
C448        C  0.55372639  0.36857788  0.24316992     0.08030
C449        C  0.56270247  0.35209203  0.21102766    -0.01760
C450        C  0.59009529  0.33287348  0.21309490    -0.01760
C451        C  0.60917800  0.33006325  0.24687476     0.08170
C452        C  0.60178968  0.34726837  0.27829420    -0.01960
Br453      Br  0.62701971  0.34258198  0.32507712    -0.00510
Br454      Br  0.56439810  0.38862559  0.32128476    -0.00580
Br455      Br  0.60079942  0.30934187  0.17000278    -0.00540
Br456      Br  0.53804294  0.35538540  0.16350866    -0.00520
C457        C  0.63349886  0.21140736  0.23146796    -0.01650
C458        C  0.62569050  0.23128670  0.25945510     0.08030
C459        C  0.60100466  0.22548824  0.28789740    -0.01760
C460        C  0.58307415  0.20043815  0.28734026    -0.01760
C461        C  0.59226057  0.17976317  0.26016571     0.08170
C462        C  0.61914020  0.18530897  0.23332101    -0.01960
Br463      Br  0.63903377  0.15763408  0.19954586    -0.00510
Br464      Br  0.66070268  0.22051074  0.18779440    -0.00580
Br465      Br  0.54484706  0.19620685  0.32313012    -0.00540
Br466      Br  0.59160675  0.25211507  0.32779838    -0.00520
C467        C  0.78348792  0.30352892  0.46792203    -0.01650
C468        C  0.80562209  0.29965281  0.99987242     0.08030
C469        C  0.79024132  0.28904758  0.03287243    -0.01760
C470        C  0.75328243  0.28443809  0.03455384    -0.01760
C471        C  0.73132626  0.29034915  0.00369260     0.08170
C472        C  0.74657523  0.29930592  0.47017585    -0.01960
Br473      Br  0.71655122  0.30549760  0.42697120    -0.00510
Br474      Br  0.80302913  0.31333666  0.41982198    -0.00580
Br475      Br  0.73225571  0.27135969  0.08010729    -0.00540
Br476      Br  0.81839365  0.28171141  0.07714124    -0.00520
C477        C  0.57371805  0.36710829  0.03256858    -0.01650
C478        C  0.55539923  0.37037548  0.99797133     0.08030
C479        C  0.56734382  0.35597389  0.46521215    -0.01760
C480        C  0.59441521  0.33659363  0.46786298    -0.01760
C481        C  0.60995817  0.33150509  0.00302999     0.08170
C482        C  0.60086497  0.34761790  0.03495428    -0.01960
Br483      Br  0.62494180  0.34210910  0.08218511    -0.00510
Br484      Br  0.56095974  0.38786160  0.07755664    -0.00580
Br485      Br  0.61027126  0.31673527  0.42327248    -0.00540
Br486      Br  0.54751610  0.36298081  0.41615760    -0.00520
C487        C  0.62415661  0.21603129  0.03964380    -0.01650
C488        C  0.62282005  0.23181115  0.00732699     0.08030
C489        C  0.60458477  0.22207673  0.47483801    -0.01760
C490        C  0.58703270  0.19700550  0.47490045    -0.01760
C491        C  0.58846880  0.18111963  0.00720480     0.08170
C492        C  0.60744204  0.19057956  0.03946750    -0.01960
Br493      Br  0.61226992  0.16820103  0.08281548    -0.00510
Br494      Br  0.64814276  0.22962387  0.08451177    -0.00580
Br495      Br  0.55968298  0.18515886  0.43113503    -0.00540
Br496      Br  0.60448679  0.24277347  0.42975811    -0.00520
C497        C  0.69222240  0.28742430  0.50634799     0.03330
C498        C  0.67662629  0.26165325  0.50672433    -0.12820
C499        C  0.63953281  0.25888622  0.50776533     0.00830
C500        C  0.61808570  0.28199738  0.50790165    -0.11340
C501        C  0.63336242  0.30776641  0.50669119     0.03320
C502        C  0.67043126  0.31047449  0.50649478    -0.10770
H503        H  0.69328992  0.24380550  0.50581257     0.08920
H504        H  0.58939310  0.27988733  0.50797013     0.06450
H505        H  0.68227580  0.33038880  0.50533154     0.06290
C506        C  0.69349702  0.28845535  0.75640929     0.03330
C507        C  0.67075978  0.31065446  0.75167744    -0.12820
C508        C  0.63378657  0.30699637  0.75057410     0.00830
C509        C  0.61958195  0.28099032  0.75283624    -0.11340
C510        C  0.64170230  0.25866175  0.75764741     0.03320
C511        C  0.67871347  0.26252888  0.75991411    -0.10770
H512        H  0.68178386  0.33072266  0.74898163     0.08920
H513        H  0.59103802  0.27813904  0.75093011     0.06450
H514        H  0.69598529  0.24536061  0.76391602     0.06290
Zn515      Zn  0.56746387  0.09830174  0.97219200     1.49720
Zn516      Zn  0.54725697  0.05560945  0.53379972     1.49360
Zn517      Zn  0.51749551  0.11621334  0.53850934     1.49110
Zn518      Zn  0.48869690  0.07506633  0.97352726     1.49480
O519        O  0.52987311  0.08596269  0.50463387    -1.83920
O520        O  0.61273879  0.08061913  0.98480791    -0.74550
O521        O  0.54076047  0.06376177  0.59008582    -0.74370
O522        O  0.55011832  0.14825926  0.53306596    -0.73890
O523        O  0.60005422  0.04850868  0.52390284    -0.74570
O524        O  0.57809651  0.13762354  0.97965161    -0.74170
O525        O  0.51796934  0.10529448  0.59273308    -0.74750
O526        O  0.44617763  0.09925179  0.98536223    -0.74140
O527        O  0.51872573  0.02191895  0.52055990    -0.74900
O528        O  0.46904116  0.12943818  0.52611793    -0.74290
O529        O  0.47586131  0.03619571  0.98254375    -0.74760
O530        O  0.50007269  0.07746109  0.91747133    -0.74670
O531        O  0.55661374  0.09076123  0.91750447    -0.74450
C532        C  0.62274032  0.06116311  0.00448864     0.77330
C533        C  0.52843623  0.08410136  0.60877319     0.77830
C534        C  0.57123245  0.15429006  0.50664951     0.76780
C535        C  0.44328255  0.12082262  0.50578398     0.77160
C536        C  0.49074906  0.01755985  0.50085902     0.78300
C537        C  0.52850645  0.08335811  0.90007013     0.77350
Zn538      Zn  0.54827917  0.05496940  0.78392470     1.49720
Zn539      Zn  0.48932476  0.07493901  0.72409403     1.49360
Zn540      Zn  0.51981308  0.11521965  0.78893435     1.49110
Zn541      Zn  0.56764536  0.09812387  0.72194300     1.49480
O542        O  0.53088571  0.08510006  0.75469363    -1.83920
O543        O  0.51970697  0.02128950  0.77050312    -0.74550
O544        O  0.44756508  0.09973998  0.73717780    -0.74370
O545        O  0.51768159  0.10396817  0.84259320    -0.73890
O546        O  0.47654615  0.03594065  0.73304447    -0.74570
O547        O  0.54220392  0.06306238  0.84035083    -0.74170
O548        O  0.47265838  0.13070077  0.77524197    -0.74750
O549        O  0.57555732  0.13791489  0.72922970    -0.74140
O550        O  0.50001302  0.07791881  0.66770383    -0.74900
O551        O  0.55608968  0.14514094  0.78698048    -0.74290
O552        O  0.55656927  0.09106439  0.66734077    -0.74760
O553        O  0.61389773  0.08057597  0.73374381    -0.74670
O554        O  0.60090771  0.04845113  0.77373889    -0.74450
C555        C  0.49153985  0.01713567  0.75100483     0.77330
C556        C  0.44600471  0.12202919  0.75625192     0.77830
C557        C  0.52890886  0.08313137  0.85882552     0.76780
C558        C  0.57367692  0.15295565  0.75884401     0.77160
C559        C  0.52826846  0.08401269  0.65006325     0.78300
C560        C  0.62336085  0.06107212  0.75392786     0.77350
C561        C  0.27328739  0.21878092  0.49120116     0.03330
C562        C  0.29541688  0.19649938  0.49643106    -0.12820
C563        C  0.33224116  0.20005393  0.49877702     0.00830
C564        C  0.34672545  0.22607780  0.49743790    -0.11340
C565        C  0.32492283  0.24845178  0.49099805     0.03320
C566        C  0.28809289  0.24449848  0.48709309    -0.10770
H567        H  0.28403113  0.17651149  0.49877706     0.08920
H568        H  0.37517186  0.22881503  0.50078264     0.06450
H569        H  0.27083816  0.26149689  0.48196464     0.06290
C570        C  0.27374428  0.21935086  0.74716506     0.03330
C571        C  0.29677649  0.19714095  0.74956035    -0.12820
C572        C  0.33371245  0.20106110  0.74962257     0.00830
C573        C  0.34746459  0.22730678  0.74767815    -0.11340
C574        C  0.32462061  0.24954245  0.74579022     0.03320
C575        C  0.28780017  0.24549579  0.74516382    -0.10770
H576        H  0.28600341  0.17693399  0.75150961     0.08920
H577        H  0.37599283  0.23046879  0.74819690     0.06450
H578        H  0.27010827  0.26268905  0.74366253     0.06290
Zn579      Zn  0.44871541  0.39185566  0.96143335     1.49720
Zn580      Zn  0.47680205  0.43289335  0.52690011     1.49360
Zn581      Zn  0.41942935  0.45200889  0.96539835     1.49110
Zn582      Zn  0.39805976  0.40956566  0.52768105     1.49480
O583        O  0.43597081  0.42198288  0.49538462    -1.83920
O584        O  0.49658727  0.37759178  0.97590281    -0.74550
O585        O  0.48979229  0.47175642  0.51796057    -0.74370
O586        O  0.42597977  0.44368808  0.90954705    -0.73890
O587        O  0.51919075  0.40862166  0.51573497    -0.74570
O588        O  0.45039907  0.40276002  0.90723686    -0.74170
O589        O  0.44761963  0.48582452  0.97891635    -0.74750
O590        O  0.35272417  0.42927127  0.51711937    -0.74140
O591        O  0.46532811  0.43007902  0.58283215    -0.74900
O592        O  0.36683355  0.45873109  0.97347231    -0.74290
O593        O  0.40984784  0.41447993  0.58246390    -0.74760
O594        O  0.38757558  0.37028474  0.51835309    -0.74670
O595        O  0.41344047  0.36115534  0.96388499    -0.74450
C596        C  0.52215500  0.38659215  0.49634625     0.77330
C597        C  0.47523207  0.49029391  0.99916476     0.77830
C598        C  0.43903401  0.42359929  0.89103458     0.76780
C599        C  0.34412539  0.44777893  0.49477312     0.77160
C600        C  0.43758594  0.42243037  0.60005740     0.78300
C601        C  0.39261585  0.35434510  0.49009070     0.77350
Zn602      Zn  0.44574127  0.39076079  0.71246604     1.49720
Zn603      Zn  0.47708551  0.43203062  0.77558054     1.49360
Zn604      Zn  0.41980182  0.45220928  0.71501553     1.49110
Zn605      Zn  0.39613574  0.41205770  0.77873079     1.49480
O606        O  0.43486054  0.42193516  0.74548187    -1.83920
O607        O  0.49411986  0.37662168  0.72409785    -0.74550
O608        O  0.49046487  0.47106548  0.76730073    -0.74370
O609        O  0.42797672  0.44380502  0.65956234    -0.73890
O610        O  0.51895040  0.40750448  0.76228200    -0.74570
O611        O  0.44437185  0.40057653  0.65764286    -0.74170
O612        O  0.44809949  0.48573624  0.72902302    -0.74750
O613        O  0.35231803  0.43306950  0.76823728    -0.74140
O614        O  0.46697319  0.42868490  0.83176385    -0.74900
O615        O  0.36709704  0.45979938  0.72160234    -0.74290
O616        O  0.40951675  0.41783941  0.83308631    -0.74760
O617        O  0.38151979  0.37327293  0.77048379    -0.74670
O618        O  0.41233063  0.35969667  0.72011599    -0.74450
C619        C  0.52076648  0.38536148  0.74296257     0.77330
C620        C  0.47589241  0.48988834  0.74904800     0.77830
C621        C  0.43714931  0.42240095  0.64125896     0.76780
C622        C  0.34416628  0.45047388  0.74416056     0.77160
C623        C  0.43862218  0.42357282  0.84981670     0.78300
C624        C  0.38924486  0.35532867  0.74534346     0.77350
C625        C  0.77532666  0.04023994  0.01039548     0.03330
C626        C  0.78900645  0.01383187  0.00761376    -0.12820
C627        C  0.82584157  0.00940158  0.00857532     0.00830
C628        C  0.84902702  0.03151000  0.01128671    -0.11340
C629        C  0.83586241  0.05790545  0.01257415     0.03320
C630        C  0.79902031  0.06226874  0.01306397    -0.10770
H631        H  0.77104001  0.49677595  0.00457323     0.08920
H632        H  0.87751723  0.02817487  0.01125748     0.06450
H633        H  0.78883691  0.08274320  0.01431362     0.06290
C634        C  0.77465555  0.04126875  0.75629794     0.03330
C635        C  0.78869230  0.01505762  0.75423776    -0.12820
C636        C  0.82553833  0.01116158  0.75312769     0.00830
C637        C  0.84828185  0.03355398  0.75350798    -0.11340
C638        C  0.83455133  0.05987582  0.75594316     0.03320
C639        C  0.79761058  0.06366976  0.75755958    -0.10770
H640        H  0.77100052  0.49775470  0.75345419     0.08920
H641        H  0.87679552  0.03047530  0.75230030     0.06450
H642        H  0.78675473  0.08393052  0.75935785     0.06290
Zn643      Zn  0.91873486  0.30685661  0.53099578     1.49720
Zn644      Zn  0.89667723  0.34859253  0.96868493     1.49360
Zn645      Zn  0.94758306  0.36776691  0.53515760     1.49110
Zn646      Zn  0.97678294  0.32670049  0.97078029     1.49480
O647        O  0.93524065  0.33724481  0.50138647    -1.83920
O648        O  0.86688158  0.29780175  0.52001056    -0.74550
O649        O  0.88422618  0.38740390  0.97681960    -0.74370
O650        O  0.94648344  0.35734262  0.58956171    -0.73890
O651        O  0.85185861  0.32851615  0.97915800    -0.74570
O652        O  0.92412016  0.31564642  0.58719287    -0.74170
O653        O  0.91467363  0.39938615  0.52849456    -0.74750
O654        O  0.01926526  0.35109181  0.98332051    -0.74140
O655        O  0.90928790  0.34375249  0.91423508    -0.74900
O656        O  0.99643011  0.38117225  0.52413746    -0.74290
O657        O  0.96569269  0.33012870  0.91467701    -0.74760
O658        O  0.98983843  0.28762834  0.97991481    -0.74670
O659        O  0.94805161  0.27366601  0.51922999    -0.74450
C660        C  0.84353753  0.30882544  0.49948515     0.77330
C661        C  0.89218247  0.40456203  0.50284423     0.77830
C662        C  0.93604944  0.33622326  0.60576173     0.76780
C663        C  0.02220021  0.37255828  0.50399449     0.77160
C664        C  0.93767225  0.33699798  0.89708453     0.78300
C665        C  0.97560960  0.26918548  0.49921400     0.77350
Zn666      Zn  0.89547044  0.34848101  0.71867189     1.49720
Zn667      Zn  0.91992105  0.30802009  0.78199518     1.49360
Zn668      Zn  0.97644710  0.32814032  0.72103049     1.49110
Zn669      Zn  0.94593970  0.36926229  0.78491466     1.49480
O670        O  0.93467792  0.33832602  0.75151015    -1.83920
O671        O  0.85161412  0.32778437  0.73015859    -0.74550
O672        O  0.94795885  0.27455567  0.76827869    -0.74370
O673        O  0.96484117  0.33110492  0.66480327    -0.73890
O674        O  0.86724801  0.30064472  0.77618708    -0.74570
O675        O  0.90749798  0.34232733  0.66410756    -0.74170
O676        O  0.99030368  0.28908783  0.73008883    -0.74750
O677        O  0.99457802  0.38288472  0.77392037    -0.74140
O678        O  0.92850467  0.31603194  0.83730573    -0.74900
O679        O  0.01852767  0.35300348  0.73413065    -0.74290
O680        O  0.94445157  0.35934747  0.83981685    -0.74760
O681        O  0.91315510  0.40068688  0.77693006    -0.74670
O682        O  0.88173520  0.38750969  0.72654934    -0.74450
C683        C  0.84397741  0.31028658  0.75424751     0.77330
C684        C  0.97585785  0.27036859  0.74867724     0.77830
C685        C  0.93620934  0.33629208  0.64704017     0.76780
C686        C  0.02103716  0.37458347  0.75466157     0.77160
C687        C  0.93749369  0.33735763  0.85590762     0.78300
C688        C  0.89002959  0.40534460  0.75170496     0.77350
C689        C  0.19382710  0.46997265  0.49366793     0.03330
C690        C  0.17142109  0.44762223  0.49797113    -0.12820
C691        C  0.13462378  0.45127823  0.50108994     0.00830
C692        C  0.12042013  0.47742192  0.50112831    -0.11340
C693        C  0.14234063  0.99990061  0.49554538     0.03320
C694        C  0.17915124  0.49593159  0.49135430    -0.10770
H695        H  0.18256704  0.42748226  0.49885389     0.08920
H696        H  0.09200924  0.48018341  0.50452815     0.06450
H697        H  0.19645571  0.01303628  0.48693626     0.06290
C698        C  0.19377813  0.47157978  0.73959030     0.03330
C699        C  0.17099802  0.44969051  0.74552517    -0.12820
C700        C  0.13405645  0.45344560  0.74581695     0.00830
C701        C  0.12018949  0.47948310  0.74169452    -0.11340
C702        C  0.14270428  0.00160595  0.73613148     0.03320
C703        C  0.17956229  0.49732665  0.73407325    -0.10770
H704        H  0.18199073  0.42980572  0.74980957     0.08920
H705        H  0.09169588  0.48256442  0.74321814     0.06450
H706        H  0.19725674  0.01415206  0.72931699     0.06290
Zn707      Zn  0.01965310  0.14337916  0.96331692     1.49720
Zn708      Zn  0.06881742  0.16162882  0.53034333     1.49360
Zn709      Zn  0.04768864  0.20388887  0.96722954     1.49110
Zn710      Zn  0.99053842  0.18497362  0.52793595     1.49480
O711        O  0.03138229  0.17383189  0.49717356    -1.83920
O712        O  0.05530883  0.11299940  0.96715557    -0.74550
O713        O  0.11427753  0.18034783  0.51861539    -0.74370
O714        O  0.04046453  0.19587909  0.91147180    -0.73890
O715        O  0.07842620  0.12181808  0.52327091    -0.74570
O716        O  0.01882408  0.15400943  0.90897145    -0.74170
O717        O  0.10023310  0.21024369  0.97541562    -0.74750
O718        O  0.97618042  0.22335315  0.51659757    -0.74140
O719        O  0.05747973  0.16879499  0.58481997    -0.74900
O720        O  0.01990791  0.23777999  0.98000174    -0.74290
O721        O  0.00199316  0.18417385  0.58376402    -0.74760
O722        O  0.95002593  0.15854206  0.51982784    -0.74670
O723        O  0.97193430  0.12857297  0.97773147    -0.74450
C724        C  0.07462527  0.10594891  0.49462805     0.77330
C725        C  0.12294793  0.19884361  0.49634591     0.77830
C726        C  0.02872445  0.17531977  0.89287831     0.76780
C727        C  0.99137492  0.24201165  0.49854502     0.77160
C728        C  0.02967325  0.17720095  0.60166786     0.78300
C729        C  0.94743509  0.13659663  0.00019258     0.77350
Zn730      Zn  0.04868628  0.20485319  0.71770621     1.49720
Zn731      Zn  0.06779916  0.16120515  0.77977633     1.49360
Zn732      Zn  0.99055973  0.18631358  0.77818772     1.49110
Zn733      Zn  0.01755387  0.14527305  0.71212915     1.49480
O734        O  0.03094084  0.17482970  0.74695771    -1.83920
O735        O  0.10107755  0.21079179  0.72789141    -0.74550
O736        O  0.05517681  0.16523868  0.83439640    -0.74370
O737        O  0.97678834  0.22469493  0.76648164    -0.73890
O738        O  0.11360291  0.18074273  0.77142494    -0.74570
O739        O  0.02040277  0.23891269  0.72952922    -0.74170
O740        O  0.00231597  0.18526865  0.83418494    -0.74750
O741        O  0.96956670  0.13097547  0.72605910    -0.74140
O742        O  0.07836421  0.12214237  0.76845732    -0.74900
O743        O  0.94933024  0.16039119  0.76994181    -0.74290
O744        O  0.05284151  0.11444105  0.71333893    -0.74760
O745        O  0.01616498  0.15693760  0.65863656    -0.74670
O746        O  0.04362317  0.19677901  0.66157174    -0.74450
C747        C  0.12302891  0.19930537  0.74960132     0.77330
C748        C  0.02864932  0.17545137  0.85170078     0.77830
C749        C  0.99183484  0.24323134  0.74805968     0.76780
C750        C  0.94570803  0.13900312  0.74923252     0.77160
C751        C  0.07383493  0.10705244  0.73917219     0.78300
C752        C  0.02928784  0.17729127  0.64278312     0.77350
C753        C  0.13787241  0.04964401  0.76078905    -0.01650
C754        C  0.12746656  0.02927044  0.73429998     0.08030
C755        C  0.10128917  0.03502187  0.70719102    -0.01760
C756        C  0.08309411  0.05995319  0.70885431    -0.01760
C757        C  0.09344447  0.08064977  0.73561634     0.08170
C758        C  0.12288263  0.07561281  0.75975445    -0.01960
Br759      Br  0.14561307  0.10400006  0.79028216    -0.00510
Br760      Br  0.17082629  0.04177608  0.80089525    -0.00580
Br761      Br  0.04346249  0.06412843  0.67457176    -0.00540
Br762      Br  0.09106242  0.00883514  0.66680436    -0.00520
C763        C  0.09904408  0.03251352  0.96779666    -0.01650
C764        C  0.12640813  0.02739302  0.49392627     0.08030
C765        C  0.13768542  0.04835995  0.51909702    -0.01760
C766        C  0.12280133  0.07437478  0.51725619    -0.01760
C767        C  0.09300650  0.07901540  0.49347463     0.08170
C768        C  0.08105348  0.05749857  0.96896690    -0.01960
Br769      Br  0.03888734  0.06050172  0.93791048    -0.00510
Br770      Br  0.08695507  0.00555081  0.92899020    -0.00580
Br771      Br  0.14584510  0.10335430  0.54625920    -0.00540
Br772      Br  0.17198022  0.04131438  0.55824850    -0.00520
C773        C  0.07899525  0.39017711  0.72503473    -0.01650
C774        C  0.05440248  0.39133147  0.75549772     0.08030
C775        C  0.06048234  0.41060866  0.78564276    -0.01760
C776        C  0.08760538  0.43006671  0.78304966    -0.01760
C777        C  0.10939684  0.43044340  0.75091616     0.08170
C778        C  0.10600176  0.40985924  0.72270735    -0.01960
Br779      Br  0.13701042  0.40964847  0.67930784    -0.00510
Br780      Br  0.07634449  0.36257547  0.68515116    -0.00580
Br781      Br  0.09520087  0.45648531  0.82382933    -0.00540
Br782      Br  0.03306575  0.41068308  0.83183910    -0.00520
C783        C  0.09473465  0.42125189  0.53728778    -0.01650
C784        C  0.11029314  0.42788378  0.50278638     0.08030
C785        C  0.10017804  0.41384912  0.96924215    -0.01760
C786        C  0.07280193  0.39442194  0.96972490    -0.01760
C787        C  0.05548125  0.38882925  0.50404057     0.08170
C788        C  0.06777031  0.40154732  0.53807991    -0.01960
Br789      Br  0.04830875  0.39188752  0.58622545    -0.00510
Br790      Br  0.10986047  0.43991471  0.58330938    -0.00580
Br791      Br  0.05759584  0.37745500  0.92251208    -0.00540
Br792      Br  0.12234233  0.42265894  0.92210444    -0.00520
C793        C  0.88353297  0.08665076  0.78707080    -0.01650
C794        C  0.85941955  0.08311623  0.75670825     0.08030
C795        C  0.86149814  0.10017832  0.72563899    -0.01760
C796        C  0.88879863  0.11957830  0.72403306    -0.01760
C797        C  0.91395760  0.12200308  0.75342039     0.08170
C798        C  0.91084753  0.10596418  0.78532542    -0.01960
Br799      Br  0.94570474  0.10905721  0.82536577    -0.00510
Br800      Br  0.87954489  0.06465933  0.83085240    -0.00580
Br801      Br  0.89233817  0.14259616  0.68133353    -0.00540
Br802      Br  0.82848881  0.09595949  0.68411789    -0.00520
C803        C  0.84194658  0.46898382  0.78560797    -0.01650
C804        C  0.84061659  0.48363809  0.75227359     0.08030
C805        C  0.85486614  0.47248868  0.71854117    -0.01760
C806        C  0.87084641  0.44679253  0.71816900    -0.01760
C807        C  0.87245704  0.43207285  0.75166372     0.08170
C808        C  0.85758155  0.44318768  0.78531188    -0.01960
Br809      Br  0.85712857  0.42278926  0.83085927    -0.00510
Br810      Br  0.82323244  0.48472465  0.83200477    -0.00580
Br811      Br  0.89221420  0.43269822  0.67208151    -0.00540
Br812      Br  0.85252646  0.49266518  0.67290615    -0.00520
C813        C  0.86916463  0.09143431  0.97521630    -0.01650
C814        C  0.86120505  0.08063702  0.01051906     0.08030
C815        C  0.88028469  0.08942466  0.54289121    -0.01760
C816        C  0.90767253  0.10864258  0.53987604    -0.01760
C817        C  0.91587789  0.11923279  0.00438424     0.08170
C818        C  0.89604794  0.11096707  0.97224717    -0.01960
Br819      Br  0.90569215  0.12646633  0.92404356    -0.00510
Br820      Br  0.84529408  0.07790176  0.93028253    -0.00580
Br821      Br  0.93586486  0.11857551  0.58382870    -0.00540
Br822      Br  0.87006302  0.07391457  0.59089818    -0.00520
C823        C  0.83597900  0.46387763  0.53561542    -0.01650
C824        C  0.84069555  0.48174501  0.00581374     0.08030
C825        C  0.86154794  0.47374155  0.97430964    -0.01760
C826        C  0.87863035  0.44848460  0.97337064    -0.01760
C827        C  0.87431701  0.43095215  0.00353740     0.08170
C828        C  0.85230772  0.43837448  0.53416481    -0.01960
Br829      Br  0.84348391  0.41311505  0.57348798    -0.00510
Br830      Br  0.80879007  0.47460483  0.57951403    -0.00580
Br831      Br  0.90917208  0.43839797  0.93152200    -0.00540
Br832      Br  0.86642483  0.99720800  0.93214930    -0.00520
C833        C  0.25027691  0.45790996  0.70739621    -0.01650
C834        C  0.23268287  0.46765483  0.74008839     0.08030
C835        C  0.25208709  0.47310637  0.77354398    -0.01760
C836        C  0.28904509  0.46898528  0.77425827    -0.01760
C837        C  0.30664467  0.45881557  0.74170752     0.08170
C838        C  0.28718023  0.45335745  0.70819444    -0.01960
Br839      Br  0.31038266  0.43746707  0.66430407    -0.00510
Br840      Br  0.22338713  0.44976183  0.66204519    -0.00580
Br841      Br  0.31563030  0.47743092  0.81985460    -0.00540
Br842      Br  0.22774072  0.48474329  0.81900826    -0.00520
C843        C  0.28656929  0.45158490  0.95980216    -0.01650
C844        C  0.30652678  0.45608086  0.49322055     0.08030
C845        C  0.28969644  0.46631812  0.52614104    -0.01760
C846        C  0.25289845  0.47120302  0.52603795    -0.01760
C847        C  0.23280469  0.46619686  0.49291261     0.08170
C848        C  0.24974434  0.45668076  0.95967628    -0.01960
Br849      Br  0.22221505  0.45008806  0.91430416    -0.00510
Br850      Br  0.30915827  0.43677838  0.91487309    -0.00580
Br851      Br  0.22973384  0.48361231  0.57180176    -0.00540
Br852      Br  0.31725766  0.47406093  0.57126040    -0.00520
C853        C  0.21780791  0.20314426  0.71553910    -0.01650
C854        C  0.23482218  0.21531898  0.74726982     0.08030
C855        C  0.21465099  0.22363299  0.77909243    -0.01760
C856        C  0.17772569  0.21913508  0.77950309    -0.01760
C857        C  0.16092327  0.20643895  0.74809440     0.08170
C858        C  0.18094638  0.19855771  0.71604780    -0.01960
Br859      Br  0.15811484  0.18014427  0.67357964    -0.00510
Br860      Br  0.24485528  0.19319763  0.67105256    -0.00580
Br861      Br  0.14996096  0.23057957  0.82282255    -0.00540
Br862      Br  0.23771734  0.24054434  0.82250359    -0.00520
C863        C  0.35244015  0.28914600  0.77973927    -0.01650
C864        C  0.33944029  0.27715346  0.74585202     0.08030
C865        C  0.34127304  0.29123959  0.71207044    -0.01760
C866        C  0.35676611  0.31712778  0.71200380    -0.01760
C867        C  0.37128285  0.32873686  0.74567289     0.08170
C868        C  0.36887813  0.31465001  0.77963495    -0.01960
Br869      Br  0.38986784  0.32922676  0.82586492    -0.00510
Br870      Br  0.34698601  0.27076041  0.82654535    -0.00580
Br871      Br  0.35646892  0.33699416  0.66598427    -0.00540
Br872      Br  0.32296555  0.27477072  0.66579737    -0.00520
C873        C  0.21600169  0.21898541  0.52614331    -0.01650
C874        C  0.23444316  0.21530604  0.49183293     0.08030
C875        C  0.21606018  0.20741476  0.95865040    -0.01760
C876        C  0.17917847  0.20291786  0.95978286    -0.01760
C877        C  0.16068194  0.20644371  0.49419261     0.08170
C878        C  0.17911523  0.21474675  0.52729430    -0.01960
Br879      Br  0.15380972  0.22059656  0.57420757    -0.00510
Br880      Br  0.24159683  0.22867025  0.57191255    -0.00580
Br881      Br  0.15465480  0.18986555  0.91481753    -0.00540
Br882      Br  0.24184571  0.20174756  0.91210283    -0.00520
C883        C  0.36863705  0.28076618  0.96347832    -0.01650
C884        C  0.34079313  0.27590673  0.48898157     0.08030
C885        C  0.32879973  0.29715682  0.51316894    -0.01760
C886        C  0.34345310  0.32318899  0.51086836    -0.01760
C887        C  0.37393086  0.32756401  0.48814498     0.08170
C888        C  0.38644954  0.30584477  0.96445378    -0.01960
Br889      Br  0.42893491  0.30876517  0.93411837    -0.00510
Br890      Br  0.38181594  0.25326586  0.92596229    -0.00580
Br891      Br  0.31906562  0.35252347  0.53758060    -0.00540
Br892      Br  0.29399662  0.29054822  0.55188330    -0.00520
C893        C  0.67927755  0.04928548  0.78907840    -0.01650
C894        C  0.66156497  0.05361744  0.75449537     0.08030
C895        C  0.68127999  0.05292556  0.72049019    -0.01760
C896        C  0.71828163  0.04904347  0.72131022    -0.01760
C897        C  0.73578433  0.04520709  0.75580292     0.08170
C898        C  0.71626326  0.04487806  0.78956858    -0.01960
Br899      Br  0.74066446  0.53902384  0.83656214    -0.00510
Br900      Br  0.65383897  0.05111077  0.83631521    -0.00580
Br901      Br  0.74537505  0.04911978  0.67516135    -0.00540
Br902      Br  0.65784547  0.05627882  0.67226988    -0.00520
C903        C  0.40421125  0.15507411  0.78853256    -0.01650
C904        C  0.41318205  0.13893826  0.75609193     0.08030
C905        C  0.39226820  0.14104871  0.72293265    -0.01760
C906        C  0.36518057  0.16065099  0.72136665    -0.01760
C907        C  0.35845054  0.17800624  0.75279278     0.08170
C908        C  0.37713328  0.17454572  0.78669472    -0.01960
Br909      Br  0.36556136  0.19679187  0.83073568    -0.00510
Br910      Br  0.42799753  0.15048490  0.83633998    -0.00580
Br911      Br  0.33850133  0.16485961  0.67536288    -0.00540
Br912      Br  0.40122105  0.11849821  0.67847043    -0.00520
C913        C  0.68475025  0.06340363  0.97625191    -0.01330
C914        C  0.66159316  0.05406448  0.00494897     0.08030
C915        C  0.67662920  0.03926744  0.53482287    -0.01760
C916        C  0.71371228  0.03530185  0.53684853    -0.01760
C917        C  0.73627602  0.04481931  0.00853445     0.08170
C918        C  0.72152854  0.05835908  0.97796208    -0.01960
Br919      Br  0.75173841  0.06922387  0.93713014    -0.00510
Br920      Br  0.66780129  0.08281789  0.93303039    -0.00580
Br921      Br  0.73385296  0.51800171  0.57990459    -0.00540
Br922      Br  0.64782023  0.52443394  0.57431594    -0.00520
C923        C  0.39097317  0.14067733  0.97134808    -0.01650
C924        C  0.41012812  0.13721617  0.50536893     0.08030
C925        C  0.39968167  0.15212675  0.53839309    -0.01760
C926        C  0.37313689  0.17198451  0.53648028    -0.01760
C927        C  0.35615062  0.17665474  0.50200017     0.08170
C928        C  0.36405885  0.16036310  0.96983398    -0.01960
Br929      Br  0.33943231  0.16636080  0.92295553    -0.00510
Br930      Br  0.40254489  0.12024085  0.92565793    -0.00580
Br931      Br  0.36034809  0.19346316  0.58089065    -0.00540
Br932      Br  0.42098339  0.14544515  0.58684719    -0.00520
C933        C  0.74852082  0.30885041  0.78630185    -0.01650
C934        C  0.73272190  0.29242828  0.75746229     0.08030
C935        C  0.75449362  0.28065425  0.72889443    -0.01760
C936        C  0.79143819  0.28492103  0.72950497    -0.01760
C937        C  0.80666159  0.30207946  0.75742278     0.08170
C938        C  0.78524293  0.31419275  0.78567828    -0.01960
Br939      Br  0.80604824  0.33964016  0.82188599    -0.00510
Br940      Br  0.72023721  0.32416077  0.82681847    -0.00580
Br941      Br  0.82146287  0.26783506  0.69159723    -0.00540
Br942      Br  0.73405165  0.26093817  0.68658994    -0.00520
C943        C  0.57445033  0.36662854  0.77650431    -0.01650
C944        C  0.55372916  0.36857853  0.74317221     0.08030
C945        C  0.56270541  0.35209292  0.71102978    -0.01760
C946        C  0.59009811  0.33287429  0.71309694    -0.01760
C947        C  0.60918054  0.33006374  0.74687690     0.08170
C948        C  0.60179228  0.34726882  0.77829642    -0.01960
Br949      Br  0.62702206  0.34258220  0.82507938    -0.00510
Br950      Br  0.56440107  0.38862640  0.82128681    -0.00580
Br951      Br  0.60080241  0.30934301  0.67000455    -0.00540
Br952      Br  0.53804625  0.35538684  0.66351068    -0.00520
C953        C  0.63349936  0.21140769  0.73146769    -0.01650
C954        C  0.62569121  0.23128682  0.75945520     0.08030
C955        C  0.60100474  0.22548839  0.78789690    -0.01760
C956        C  0.58307350  0.20043859  0.78733886    -0.01760
C957        C  0.59225970  0.17976374  0.76016398     0.08170
C958        C  0.61913979  0.18530949  0.73331975    -0.01960
Br959      Br  0.63903271  0.15763479  0.69954387    -0.00510
Br960      Br  0.66070427  0.22051118  0.68779496    -0.00580
Br961      Br  0.54484575  0.19620759  0.82312806    -0.00540
Br962      Br  0.59160701  0.25211486  0.82779839    -0.00520
C963        C  0.78348606  0.30354079  0.96792322    -0.01650
C964        C  0.80562411  0.29963753  0.49987025     0.08030
C965        C  0.79024290  0.28903002  0.53286857    -0.01760
C966        C  0.75328336  0.28442367  0.53455060    -0.01760
C967        C  0.73132716  0.29033909  0.50369116     0.08170
C968        C  0.74657384  0.29931519  0.97017664    -0.01960
Br969      Br  0.71654963  0.30550253  0.92697081    -0.00510
Br970      Br  0.80302716  0.31334767  0.91982290    -0.00580
Br971      Br  0.73225620  0.27134362  0.58010292    -0.00540
Br972      Br  0.81839566  0.28168503  0.57713387    -0.00520
C973        C  0.57372108  0.36710304  0.53256615    -0.01650
C974        C  0.55540193  0.37036996  0.49796898     0.08030
C975        C  0.56734096  0.35597937  0.96521448    -0.01760
C976        C  0.59441231  0.33659910  0.96786524    -0.01760
C977        C  0.60996113  0.33149972  0.50302774     0.08170
C978        C  0.60086810  0.34761272  0.53495188    -0.01960
Br979      Br  0.62494518  0.34210412  0.58218263    -0.00510
Br980      Br  0.56096326  0.38785658  0.57755416    -0.00580
Br981      Br  0.61026861  0.31674111  0.92327457    -0.00540
Br982      Br  0.54751297  0.36298623  0.91616001    -0.00520
C983        C  0.62415299  0.21602670  0.53964473    -0.01650
C984        C  0.62281791  0.23180559  0.50732695     0.08030
C985        C  0.60458501  0.22208323  0.97483871    -0.01760
C986        C  0.58703174  0.19701245  0.97490121    -0.01760
C987        C  0.58846902  0.18111339  0.50720473     0.08170
C988        C  0.60743962  0.19057459  0.53946846    -0.01960
Br989      Br  0.61226553  0.16819730  0.58281797    -0.00510
Br990      Br  0.64813541  0.22962116  0.58451389    -0.00580
Br991      Br  0.55967936  0.18516752  0.93113683    -0.00540
Br992      Br  0.60448618  0.24278059  0.92975939    -0.00520
C993        C  0.69222177  0.78743235  0.00634923     0.03330
C994        C  0.67662702  0.76166105  0.00672534    -0.12820
C995        C  0.63953393  0.75889225  0.00776620     0.00830
C996        C  0.61808530  0.78200283  0.00790310    -0.11340
C997        C  0.63336062  0.80777235  0.00669305     0.03320
C998        C  0.67042935  0.81048207  0.00649634    -0.10770
H999        H  0.69329253  0.74381316  0.00581335     0.08920
H1000       H  0.58939313  0.77989179  0.00797162     0.06450
H1001       H  0.68227232  0.83039613  0.00533331     0.06290
C1002       C  0.69349522  0.78845570  0.25640697     0.03330
C1003       C  0.67075762  0.81065458  0.25167499    -0.12820
C1004       C  0.63378444  0.80699614  0.25057204     0.00830
C1005       C  0.61958025  0.78099000  0.25283496    -0.11340
C1006       C  0.64170102  0.75866172  0.25764643     0.03320
C1007       C  0.67871213  0.76252918  0.25991253    -0.10770
H1008       H  0.68178139  0.83072284  0.24897881     0.08920
H1009       H  0.59103635  0.77813845  0.25092925     0.06450
H1010       H  0.69598428  0.74536112  0.26391457     0.06290
Zn1011     Zn  0.56746731  0.59829461  0.47219281     1.49720
Zn1012     Zn  0.54725646  0.55561537  0.03379865     1.49360
Zn1013     Zn  0.51749532  0.61621920  0.03851097     1.49110
Zn1014     Zn  0.48869878  0.57506030  0.47352617     1.49480
O1015       O  0.52987142  0.58596890  0.00463424    -1.83920
O1016       O  0.61274161  0.58060997  0.48480817    -0.74550
O1017       O  0.54075941  0.56376597  0.09008483    -0.74370
O1018       O  0.55011919  0.64826504  0.03306763    -0.73890
O1019       O  0.60005435  0.54851712  0.02390245    -0.74570
O1020       O  0.57810094  0.63761617  0.47965352    -0.74170
O1021       O  0.51796955  0.60529904  0.09273461    -0.74750
O1022       O  0.44617866  0.59924531  0.48536024    -0.74140
O1023       O  0.51872626  0.52192440  0.02055796    -0.74900
O1024       O  0.46904073  0.62944428  0.02612023    -0.74290
O1025       O  0.47586331  0.53618948  0.48254194    -0.74760
O1026       O  0.50007540  0.57745633  0.41747075    -0.74670
O1027       O  0.55661674  0.59075594  0.41750490    -0.74450
C1028       C  0.62274128  0.56115324  0.50448876     0.77330
C1029       C  0.52843580  0.58410517  0.10877344     0.77830
C1030       C  0.57123106  0.65429656  0.00664940     0.76780
C1031       C  0.44328190  0.62082892  0.00578636     0.77160
C1032       C  0.49074832  0.51756568  0.00085897     0.78300
C1033       C  0.52850929  0.58335376  0.40007008     0.77350
Zn1034     Zn  0.54828064  0.55496816  0.28392339     1.49720
Zn1035     Zn  0.48932577  0.57493910  0.22409447     1.49360
Zn1036     Zn  0.51981502  0.61521849  0.28893612     1.49110
Zn1037     Zn  0.56764643  0.59812377  0.22194341     1.49480
O1038       O  0.53088702  0.58509950  0.25469390    -1.83920
O1039       O  0.51970759  0.52128874  0.27050231    -0.74550
O1040       O  0.44756674  0.59974021  0.23717939    -0.74370
O1041       O  0.51768395  0.60396563  0.34259450    -0.73890
O1042       O  0.47654645  0.53594073  0.23304476    -0.74570
O1043       O  0.54220667  0.56305999  0.34034970    -0.74170
O1044       O  0.47266036  0.63070020  0.27524459    -0.74750
O1045       O  0.57555801  0.63791456  0.22923141    -0.74140
O1046       O  0.50001332  0.57792030  0.16770410    -0.74900
O1047       O  0.55609170  0.64513990  0.28698288    -0.74290
O1048       O  0.55656949  0.59106611  0.16734104    -0.74760
O1049       O  0.61389919  0.58057573  0.23374323    -0.74670
O1050       O  0.60090877  0.54844977  0.27373639    -0.74450
C1051       C  0.49153986  0.51713547  0.25100487     0.77330
C1052       C  0.44600665  0.62202916  0.25625412     0.77830
C1053       C  0.52891162  0.58312842  0.35882556     0.76780
C1054       C  0.57367815  0.65295498  0.25884606     0.77160
C1055       C  0.52826843  0.58401505  0.15006349     0.78300
C1056       C  0.62336215  0.56107132  0.25392638     0.77350
C1057       C  0.27328798  0.71878841  0.99120433     0.03330
C1058       C  0.29541667  0.69650649  0.99643474    -0.12820
C1059       C  0.33224107  0.70006048  0.99878082     0.00830
C1060       C  0.34672610  0.72608411  0.99744151    -0.11340
C1061       C  0.32492403  0.74845829  0.99100129     0.03320
C1062       C  0.28809420  0.74450555  0.98709584    -0.10770
H1063       H  0.28403027  0.67651884  0.99878092     0.08920
H1064       H  0.37517256  0.72882097  0.00078635     0.06450
H1065       H  0.27084000  0.76150421  0.98196699     0.06290
C1066       C  0.27374547  0.71934976  0.24716908     0.03330
C1067       C  0.29677840  0.69714029  0.24956407    -0.12820
C1068       C  0.33371420  0.70106105  0.24962478     0.00830
C1069       C  0.34746553  0.72730687  0.24767906    -0.11340
C1070       C  0.32462083  0.74954213  0.24579135     0.03320
C1071       C  0.28780047  0.74549489  0.24516659    -0.10770
H1072       H  0.28600600  0.67693318  0.25151417     0.08920
H1073       H  0.37599369  0.73046932  0.24819670     0.06450
H1074       H  0.27010799  0.76268782  0.24366551     0.06290
Zn1075     Zn  0.44871699  0.89184949  0.46143150     1.49720
Zn1076     Zn  0.47680005  0.93289948  0.02690104     1.49360
Zn1077     Zn  0.41943065  0.95200280  0.46539905     1.49110
Zn1078     Zn  0.39805679  0.90957314  0.02768116     1.49480
O1079       O  0.43596875  0.92198948  0.99538526    -1.83920
O1080       O  0.49658983  0.87758616  0.47590005    -0.74550
O1081       O  0.48979053  0.97176252  0.01796169    -0.74370
O1082       O  0.42598039  0.94368337  0.40954770    -0.73890
O1083       O  0.51918892  0.90862787  0.01573626    -0.74570
O1084       O  0.45039914  0.90275514  0.40723494    -0.74170
O1085       O  0.44762005  0.98581872  0.47891716    -0.74750
O1086       O  0.35272165  0.92927976  0.01712000    -0.74140
O1087       O  0.46532599  0.93008398  0.08283282    -0.74900
O1088       O  0.36683507  0.95872408  0.47347331    -0.74290
O1089       O  0.40984520  0.91448589  0.08246385    -0.74760
O1090       O  0.38757197  0.87029254  0.01835289    -0.74670
O1091       O  0.41344184  0.86114871  0.46388356    -0.74450
C1092       C  0.52215265  0.88659793  0.99634848     0.77330
C1093       C  0.47523302  0.99028802  0.49916469     0.77830
C1094       C  0.43903401  0.92359500  0.39103395     0.76780
C1095       C  0.34412348  0.94778708  0.99477291     0.77160
C1096       C  0.43758367  0.92243516  0.10005764     0.78300
C1097       C  0.39261361  0.85435227  0.99009153     0.77350
Zn1098     Zn  0.44573877  0.89076173  0.21246412     1.49720
Zn1099     Zn  0.47708388  0.93203018  0.27557985     1.49360
Zn1100     Zn  0.41979989  0.95221043  0.21501683     1.49110
Zn1101     Zn  0.39613371  0.91205771  0.27873016     1.49480
O1102       O  0.43485854  0.92193549  0.24548146    -1.83920
O1103       O  0.49411725  0.87662186  0.22409525    -0.74550
O1104       O  0.49046388  0.97106518  0.26730075    -0.74370
O1105       O  0.42797478  0.94380774  0.15956370    -0.73890
O1106       O  0.51894825  0.90750401  0.26228003    -0.74570
O1107       O  0.44436940  0.90057914  0.15764147    -0.74170
O1108       O  0.44809783  0.98573698  0.22902469    -0.74750
O1109       O  0.35231534  0.93306930  0.26823681    -0.74140
O1110       O  0.46697221  0.92868263  0.33176308    -0.74900
O1111       O  0.36709514  0.95980008  0.22160320    -0.74290
O1112       O  0.40951554  0.91783772  0.33308587    -0.74760
O1113       O  0.38151826  0.87327305  0.27048206    -0.74670
O1114       O  0.41232799  0.85969740  0.22011319    -0.74450
C1115       C  0.52076400  0.88536117  0.24296020     0.77330
C1116       C  0.47589147  0.98988844  0.24904869     0.77830
C1117       C  0.43714716  0.92240422  0.14125903     0.76780
C1118       C  0.34416385  0.95047388  0.24416020     0.77160
C1119       C  0.43862145  0.92357001  0.34981610     0.78300
C1120       C  0.38924291  0.85532904  0.24534127     0.77350
C1121       C  0.77532609  0.54022355  0.51039425     0.03330
C1122       C  0.78900565  0.51381535  0.50761318    -0.12820
C1123       C  0.82584077  0.50938490  0.50857534     0.00830
C1124       C  0.84902634  0.53149324  0.51128712    -0.11340
C1125       C  0.83586205  0.55788874  0.51257354     0.03320
C1126       C  0.79901997  0.56225225  0.51306242    -0.10770
H1127       H  0.77103900  0.99675954  0.50457227     0.08920
H1128       H  0.87751651  0.52815799  0.51125853     0.06450
H1129       H  0.78883678  0.58272676  0.51431118     0.06290
C1130       C  0.77465724  0.54126914  0.25630213     0.03330
C1131       C  0.78869447  0.51505810  0.25424444    -0.12820
C1132       C  0.82554059  0.51116238  0.25313586     0.00830
C1133       C  0.84828373  0.53355497  0.25351504    -0.11340
C1134       C  0.83455283  0.55987675  0.25594796     0.03320
C1135       C  0.79761194  0.56367038  0.25756309    -0.10770
H1136       H  0.77100297  0.99775500  0.25346137     0.08920
H1137       H  0.87679747  0.53047648  0.25230798     0.06450
H1138       H  0.78675573  0.58393106  0.25935965     0.06290
Zn1139     Zn  0.91873333  0.80687067  0.03099399     1.49720
Zn1140     Zn  0.89667899  0.84857763  0.46868542     1.49360
Zn1141     Zn  0.94757780  0.86778158  0.03516124     1.49110
Zn1142     Zn  0.97678351  0.82668333  0.47077792     1.49480
O1143       O  0.93523844  0.83726022  0.00138722    -1.83920
O1144       O  0.86688001  0.79781623  0.02000955    -0.74550
O1145       O  0.88422643  0.88738816  0.47682200    -0.74370
O1146       O  0.94647819  0.85735470  0.08956514    -0.73890
O1147       O  0.85186142  0.82850030  0.47915665    -0.74570
O1148       O  0.92411993  0.81565700  0.08719136    -0.74170
O1149       O  0.91466647  0.89939971  0.02849772    -0.74750
O1150       O  0.01926902  0.85107124  0.48331757    -0.74140
O1151       O  0.90928925  0.84374081  0.41423582    -0.74900
O1152       O  0.99642396  0.88119036  0.02414234    -0.74290
O1153       O  0.96569298  0.83011448  0.41467526    -0.74760
O1154       O  0.98983564  0.78761066  0.47991193    -0.74670
O1155       O  0.94805040  0.77368108  0.01922607    -0.74450
C1156       C  0.84353535  0.80884088  0.99948593     0.77330
C1157       C  0.89217891  0.90457680  0.00284428     0.77830
C1158       C  0.93604711  0.83623339  0.10576265     0.76780
C1159       C  0.02219459  0.87257870  0.00399823     0.77160
C1160       C  0.93767294  0.83698640  0.39708419     0.78300
C1161       C  0.97561075  0.76920198  0.99921334     0.77350
Zn1162     Zn  0.89546983  0.84848339  0.21867492     1.49720
Zn1163     Zn  0.91991911  0.80801764  0.28199214     1.49360
Zn1164     Zn  0.97644578  0.82814044  0.22103009     1.49110
Zn1165     Zn  0.94594022  0.86925948  0.28491982     1.49480
O1166       O  0.93467724  0.83832540  0.25151121    -1.83920
O1167       O  0.85161268  0.82778652  0.23015859    -0.74550
O1168       O  0.94795776  0.77455406  0.26827543    -0.74370
O1169       O  0.96483872  0.83110747  0.16480297    -0.73890
O1170       O  0.86724616  0.80064286  0.27618256    -0.74570
O1171       O  0.90749730  0.84233516  0.16410974    -0.74170
O1172       O  0.99030410  0.78908775  0.23008860    -0.74750
O1173       O  0.99457853  0.88288231  0.27392603    -0.74140
O1174       O  0.92850227  0.81602575  0.33730294    -0.74900
O1175       O  0.01852558  0.85300443  0.23412997    -0.74290
O1176       O  0.94445350  0.85934032  0.33982030    -0.74760
O1177       O  0.91315634  0.90068574  0.27693997    -0.74670
O1178       O  0.88173627  0.88751148  0.22655804    -0.74450
C1179       C  0.84397565  0.81028688  0.25424482     0.77330
C1180       C  0.97585831  0.77036797  0.24867623     0.77830
C1181       C  0.93620765  0.83629897  0.14704107     0.76780
C1182       C  0.02103644  0.87458291  0.25466385     0.77160
C1183       C  0.93749389  0.83734946  0.35590771     0.78300
C1184       C  0.89003130  0.90534515  0.25171501     0.77350
C1185       C  0.19382695  0.96998784  0.99366575     0.03330
C1186       C  0.17141608  0.94764172  0.99797133    -0.12820
C1187       C  0.13462064  0.95129883  0.00108803     0.00830
C1188       C  0.12041770  0.97744411  0.00112186    -0.11340
C1189       C  0.14234484  0.49992005  0.99553664     0.03320
C1190       C  0.17915431  0.99594782  0.99134780    -0.10770
H1191       H  0.18256183  0.92749666  0.99885740     0.08920
H1192       H  0.09201309  0.98020739  0.00451873     0.06450
H1193       H  0.19646219  0.51305086  0.98692777     0.06290
C1194       C  0.19377564  0.97157903  0.23957803     0.03330
C1195       C  0.17099478  0.94969098  0.24551699    -0.12820
C1196       C  0.13405334  0.95344671  0.24580704     0.00830
C1197       C  0.12018728  0.97948401  0.24167962    -0.11340
C1198       C  0.14270291  0.50160583  0.23611272     0.03320
C1199       C  0.17956078  0.99732536  0.23405485    -0.10770
H1200       H  0.18198683  0.92980659  0.24980599     0.08920
H1201       H  0.09169380  0.98256604  0.24320296     0.06450
H1202       H  0.19725596  0.51414974  0.22929539     0.06290
Zn1203     Zn  0.01965586  0.64336229  0.46331586     1.49720
Zn1204     Zn  0.06881685  0.66164426  0.03034204     1.49360
Zn1205     Zn  0.04768828  0.70387325  0.46723107     1.49110
Zn1206     Zn  0.99053877  0.68499033  0.02793690     1.49480
O1207       O  0.03138167  0.67384844  0.99717349    -1.83920
O1208       O  0.05530954  0.61298097  0.46716043    -0.74550
O1209       O  0.11427596  0.68036441  0.01861666    -0.74370
O1210       O  0.04046173  0.69586592  0.41147353    -0.73890
O1211       O  0.07842897  0.62183472  0.02326460    -0.74570
O1212       O  0.01883099  0.65399337  0.40896917    -0.74170
O1213       O  0.10023306  0.71022779  0.47541573    -0.74750
O1214       O  0.97618316  0.72337037  0.01659919    -0.74140
O1215       O  0.05747894  0.66880628  0.08481901    -0.74900
O1216       O  0.01990793  0.73776398  0.48000489    -0.74290
O1217       O  0.00199345  0.68418748  0.08376498    -0.74760
O1218       O  0.95002447  0.65856042  0.01982811    -0.74670
O1219       O  0.97193534  0.62855665  0.47772813    -0.74450
C1220       C  0.07462802  0.60596716  0.99462013     0.77330
C1221       C  0.12294716  0.69885976  0.99634698     0.77830
C1222       C  0.02872633  0.67530601  0.39287799     0.76780
C1223       C  0.99137637  0.74202826  0.99854424     0.77160
C1224       C  0.02967291  0.67721196  0.10166788     0.78300
C1225       C  0.94743646  0.63657905  0.50019064     0.77350
Zn1226     Zn  0.04868947  0.70485379  0.21770924     1.49720
Zn1227     Zn  0.06779893  0.66119993  0.27977311     1.49360
Zn1228     Zn  0.99056281  0.68631297  0.27818902     1.49110
Zn1229     Zn  0.01755263  0.64527561  0.21212352     1.49480
O1230       O  0.03094204  0.67482903  0.24695672    -1.83920
O1231       O  0.10108008  0.71079093  0.22789770    -0.74550
O1232       O  0.05517503  0.66522523  0.33439378    -0.74370
O1233       O  0.97679099  0.72469467  0.26648301    -0.73890
O1234       O  0.11360351  0.68073848  0.27142741    -0.74570
O1235       O  0.02040569  0.73891311  0.22953154    -0.74170
O1236       O  0.00232058  0.68526500  0.33418645    -0.74750
O1237       O  0.96956629  0.63097726  0.22605533    -0.74140
O1238       O  0.07836356  0.62213871  0.26844448    -0.74900
O1239       O  0.94933311  0.66039100  0.26994251    -0.74290
O1240       O  0.05284101  0.61444299  0.21332440    -0.74760
O1241       O  0.01615979  0.65694571  0.15863334    -0.74670
O1242       O  0.04362827  0.69678293  0.16157425    -0.74450
C1243       C  0.12303050  0.69930265  0.24960666     0.77330
C1244       C  0.02865053  0.67544068  0.35170032     0.77830
C1245       C  0.99183697  0.74323124  0.24806074     0.76780
C1246       C  0.94570929  0.63900397  0.24923138     0.77160
C1247       C  0.07383477  0.60705202  0.23915609     0.78300
C1248       C  0.02928750  0.67729890  0.14278293     0.77350
C1249       C  0.13787715  0.54964594  0.26076386    -0.01650
C1250       C  0.12746668  0.52927078  0.23427909     0.08030
C1251       C  0.10128612  0.53502140  0.20717293    -0.01760
C1252       C  0.08309167  0.55995304  0.20883659    -0.01760
C1253       C  0.09344558  0.58065033  0.23559558     0.08170
C1254       C  0.12288798  0.57561481  0.25972820    -0.01960
Br1255     Br  0.14562493  0.60400470  0.29024531    -0.00510
Br1256     Br  0.17083586  0.54178065  0.30086682    -0.00580
Br1257     Br  0.04345607  0.56412831  0.17455947    -0.00540
Br1258     Br  0.09105393  0.50883326  0.16678977    -0.00520
C1259       C  0.09903412  0.53249275  0.46781169    -0.01650
C1260       C  0.12641570  0.52741350  0.99391351     0.08030
C1261       C  0.13769321  0.54838074  0.01908374    -0.01760
C1262       C  0.12280858  0.57439534  0.01724260    -0.01760
C1263       C  0.09301304  0.57903525  0.99346178     0.08170
C1264       C  0.08104399  0.55747799  0.46898273    -0.01960
Br1265     Br  0.03887342  0.56048041  0.43793305    -0.00510
Br1266     Br  0.08694139  0.50552980  0.42900687    -0.00580
Br1267     Br  0.14585295  0.60337576  0.04624345    -0.00540
Br1268     Br  0.17198872  0.54133617  0.05823479    -0.00520
C1269       C  0.07899593  0.89017444  0.22503692    -0.01650
C1270       C  0.05440138  0.89133172  0.25549842     0.08030
C1271       C  0.06047923  0.91061260  0.28563963    -0.01760
C1272       C  0.08760111  0.93007132  0.28304292    -0.01760
C1273       C  0.10939333  0.93044522  0.25090979     0.08170
C1274       C  0.10600055  0.90985770  0.22270548    -0.01960
Br1275     Br  0.13700979  0.90964367  0.17930606    -0.00510
Br1276     Br  0.07635237  0.86256596  0.18516187    -0.00580
Br1277     Br  0.09519456  0.95649431  0.32381763    -0.00540
Br1278     Br  0.03306267  0.91069105  0.33183643    -0.00520
C1279       C  0.09472716  0.92127645  0.03728789    -0.01650
C1280       C  0.11028616  0.92790665  0.00278608     0.08030
C1281       C  0.10018605  0.91382687  0.46924165    -0.01760
C1282       C  0.07280992  0.89439965  0.46972287    -0.01760
C1283       C  0.05547378  0.88885219  0.00404318     0.08170
C1284       C  0.06776247  0.90157206  0.03808157    -0.01960
Br1285     Br  0.04830143  0.89191418  0.08622828    -0.00510
Br1286     Br  0.10985383  0.93994055  0.08330831    -0.00580
Br1287     Br  0.05760340  0.87743442  0.42250894    -0.00540
Br1288     Br  0.12235059  0.92263828  0.42210467    -0.00520
C1289       C  0.88353557  0.58665208  0.28707307    -0.01650
C1290       C  0.85942091  0.58311731  0.25671163     0.08030
C1291       C  0.86149848  0.60017907  0.22564190    -0.01760
C1292       C  0.88879898  0.61957894  0.22403445    -0.01760
C1293       C  0.91395915  0.62200383  0.25342059     0.08170
C1294       C  0.91085025  0.60596525  0.28532603    -0.01960
Br1295     Br  0.94570941  0.60905820  0.32536452    -0.00510
Br1296     Br  0.87954915  0.56466129  0.33085544    -0.00580
Br1297     Br  0.89233668  0.64259669  0.18133464    -0.00540
Br1298     Br  0.82848792  0.59595993  0.18412200    -0.00520
C1299       C  0.84194862  0.96898489  0.28561736    -0.01650
C1300       C  0.84061940  0.98363906  0.25228282     0.08030
C1301       C  0.85487045  0.97248980  0.21855108    -0.01760
C1302       C  0.87085106  0.94679384  0.21817960    -0.01760
C1303       C  0.87246043  0.93207405  0.25167432     0.08170
C1304       C  0.85758406  0.94318888  0.28532200    -0.01960
Br1305     Br  0.85713036  0.92279060  0.33086943    -0.00510
Br1306     Br  0.82323228  0.98472555  0.33201319    -0.00580
Br1307     Br  0.89222088  0.93269990  0.17209291    -0.00540
Br1308     Br  0.85253191  0.99266607  0.17291578    -0.00520
C1309       C  0.86916537  0.59141661  0.47521498    -0.01650
C1310       C  0.86120522  0.58061999  0.51051800     0.08030
C1311       C  0.88028421  0.58944178  0.04289268    -0.01760
C1312       C  0.90767133  0.60866031  0.03987789    -0.01760
C1313       C  0.91587957  0.61921464  0.50438225     0.08170
C1314       C  0.89604944  0.61094876  0.47224534    -0.01960
Br1315     Br  0.90569390  0.62644724  0.42404133    -0.00510
Br1316     Br  0.84529411  0.57788407  0.43028166    -0.00580
Br1317     Br  0.93586362  0.61859347  0.08383046    -0.00540
Br1318     Br  0.87006343  0.57393088  0.09089927    -0.00520
C1319       C  0.83598020  0.96389494  0.03561673    -0.01650
C1320       C  0.84069507  0.98172843  0.50581309     0.08030
C1321       C  0.86154985  0.97372616  0.47431016    -0.01760
C1322       C  0.87863387  0.94846990  0.47337163    -0.01760
C1323       C  0.87432006  0.93093703  0.50353764     0.08170
C1324       C  0.85230682  0.93839103  0.03416562    -0.01960
Br1325     Br  0.84348245  0.91313251  0.07348984    -0.00510
Br1326     Br  0.80879549  0.97462433  0.07951739    -0.00580
Br1327     Br  0.90917813  0.93838443  0.43152458    -0.00540
Br1328     Br  0.86642764  0.49719311  0.43215078    -0.00520
C1329       C  0.25027700  0.95791064  0.20738827    -0.01650
C1330       C  0.23268020  0.96765369  0.24007965     0.08030
C1331       C  0.25208139  0.97310322  0.27353777    -0.01760
C1332       C  0.28903940  0.96898229  0.27425524    -0.01760
C1333       C  0.30664193  0.95881471  0.24170506     0.08170
C1334       C  0.28718029  0.95335835  0.20818954    -0.01960
Br1335     Br  0.31038638  0.93747071  0.16429952    -0.00510
Br1336     Br  0.22339068  0.94976413  0.16203431    -0.00580
Br1337     Br  0.31562051  0.97742573  0.31985494    -0.00540
Br1338     Br  0.22773078  0.98473774  0.31900068    -0.00520
C1339       C  0.28657140  0.95157677  0.45980211    -0.01650
C1340       C  0.30652513  0.95608989  0.99322013     0.08030
C1341       C  0.28969547  0.96632929  0.02613989    -0.01760
C1342       C  0.25289789  0.97121607  0.02603630    -0.01760
C1343       C  0.23280374  0.96620915  0.99291142     0.08170
C1344       C  0.24974608  0.95667122  0.45967657    -0.01960
Br1345     Br  0.22221759  0.95008023  0.41430351    -0.00510
Br1346     Br  0.30916154  0.93677314  0.41487190    -0.00580
Br1347     Br  0.22973413  0.98362946  0.07179876    -0.00540
Br1348     Br  0.31725705  0.97407253  0.07125881    -0.00520
C1349       C  0.21780924  0.70314216  0.21554423    -0.01650
C1350       C  0.23482357  0.71531706  0.24727474     0.08030
C1351       C  0.21465269  0.72363032  0.27909795    -0.01760
C1352       C  0.17772757  0.71913154  0.27950933    -0.01760
C1353       C  0.16092508  0.70643554  0.24810062     0.08170
C1354       C  0.18094791  0.69855493  0.21605354    -0.01960
Br1355     Br  0.15811618  0.68014186  0.17358514    -0.00510
Br1356     Br  0.24485617  0.69319649  0.17105696    -0.00580
Br1357     Br  0.14996318  0.73057479  0.32282960    -0.00540
Br1358     Br  0.23771925  0.74054221  0.32250857    -0.00520
C1359       C  0.35244012  0.78914632  0.27973890    -0.01650
C1360       C  0.33943976  0.77715334  0.24585218     0.08030
C1361       C  0.34127161  0.79123914  0.21207026    -0.01760
C1362       C  0.35676428  0.81712747  0.21200275    -0.01760
C1363       C  0.37128150  0.82873700  0.24567132     0.08170
C1364       C  0.36887774  0.81465041  0.27963371    -0.01960
Br1365     Br  0.38986841  0.82922757  0.32586298    -0.00510
Br1366     Br  0.34698720  0.77076114  0.32654547    -0.00580
Br1367     Br  0.35646593  0.83699337  0.16598283    -0.00540
Br1368     Br  0.32296341  0.77476964  0.16579793    -0.00520
C1369       C  0.21600238  0.71899496  0.02614621    -0.01650
C1370       C  0.23444375  0.71531484  0.99183594     0.08030
C1371       C  0.21606005  0.70740358  0.45864803    -0.01760
C1372       C  0.17917890  0.70290377  0.45978122    -0.01760
C1373       C  0.16068146  0.70645867  0.99419410     0.08170
C1374       C  0.17911533  0.71475948  0.02729644    -0.01960
Br1375     Br  0.15380994  0.72061036  0.07420961    -0.00510
Br1376     Br  0.24159827  0.72867650  0.07191624    -0.00580
Br1377     Br  0.15465601  0.68984907  0.41481669    -0.00540
Br1378     Br  0.24184554  0.70173723  0.41210029    -0.00520
C1379       C  0.36863620  0.78075973  0.46347525    -0.01650
C1380       C  0.34079435  0.77591305  0.98898494     0.08030
C1381       C  0.32880027  0.79716314  0.01317189    -0.01760
C1382       C  0.34345221  0.82319559  0.01087015    -0.01760
C1383       C  0.37392964  0.82757091  0.98814646     0.08170
C1384       C  0.38644972  0.80583797  0.46445152    -0.01960
Br1385     Br  0.42893517  0.80875810  0.43411624    -0.00510
Br1386     Br  0.38181438  0.75325967  0.42595857    -0.00580
Br1387     Br  0.31906316  0.85252987  0.03758116    -0.00540
Br1388     Br  0.29399811  0.79055420  0.05188712    -0.00520
C1389       C  0.67927753  0.54928317  0.28907816    -0.01650
C1390       C  0.66156639  0.55361688  0.25449480     0.08030
C1391       C  0.68128295  0.55292683  0.22049065    -0.01760
C1392       C  0.71828463  0.54904491  0.22131220    -0.01760
C1393       C  0.73578591  0.54520709  0.25580534     0.08170
C1394       C  0.71626327  0.54487605  0.28956980    -0.01960
Br1395     Br  0.74066233  0.03901934  0.33656383    -0.00510
Br1396     Br  0.65383687  0.55110542  0.33631373    -0.00580
Br1397     Br  0.74537993  0.54912281  0.17516473    -0.00540
Br1398     Br  0.65785051  0.55628213  0.17226961    -0.00520
C1399       C  0.40421352  0.65507446  0.28853463    -0.01650
C1400       C  0.41318433  0.63893860  0.25609400     0.08030
C1401       C  0.39227077  0.64104929  0.22293452    -0.01760
C1402       C  0.36518312  0.66065153  0.22136854    -0.01760
C1403       C  0.35845290  0.67800660  0.25279478     0.08170
C1404       C  0.37713563  0.67454613  0.28669672    -0.01960
Br1405     Br  0.36556378  0.69679245  0.33073754    -0.00510
Br1406     Br  0.42799962  0.65048523  0.33634215    -0.00580
Br1407     Br  0.33850394  0.66486029  0.17536474    -0.00540
Br1408     Br  0.40122408  0.61849929  0.17847188    -0.00520
C1409       C  0.68475040  0.56338775  0.47624917    -0.01330
C1410       C  0.66159331  0.55405191  0.50494830     0.08030
C1411       C  0.67662963  0.53927909  0.03482250    -0.01760
C1412       C  0.71371300  0.53531556  0.03684903    -0.01760
C1413       C  0.73627552  0.54480333  0.50853282     0.08170
C1414       C  0.72152843  0.55834205  0.47795931    -0.01960
Br1415     Br  0.75173864  0.56920430  0.43712637    -0.00510
Br1416     Br  0.66780124  0.58279852  0.43302478    -0.00580
Br1417     Br  0.73385420  0.01801527  0.07990444    -0.00540
Br1418     Br  0.64782121  0.02444161  0.07431285    -0.00520
C1419       C  0.39097402  0.64067085  0.47134502    -0.01650
C1420       C  0.41012753  0.63722252  0.00537178     0.08030
C1421       C  0.39968124  0.65213286  0.03839619    -0.01760
C1422       C  0.37313641  0.67199060  0.03648377    -0.01760
C1423       C  0.35614995  0.67666099  0.00200382     0.08170
C1424       C  0.36405975  0.66035666  0.46983051    -0.01960
Br1425     Br  0.33943350  0.66635410  0.42295184    -0.00510
Br1426     Br  0.40254602  0.62023404  0.42565523    -0.00580
Br1427     Br  0.36034787  0.69346907  0.08089440    -0.00540
Br1428     Br  0.42098327  0.64545101  0.08685005    -0.00520
C1429       C  0.74851911  0.80885042  0.28629950    -0.01650
C1430       C  0.73272000  0.79242889  0.25745946     0.08030
C1431       C  0.75449144  0.78065538  0.22889096    -0.01760
C1432       C  0.79143599  0.78492231  0.22950112    -0.01760
C1433       C  0.80665963  0.80208014  0.25741950     0.08170
C1434       C  0.78524124  0.81419269  0.28567587    -0.01960
Br1435     Br  0.80604707  0.83963853  0.32188540    -0.00510
Br1436     Br  0.72023570  0.82415975  0.32681707    -0.00580
Br1437     Br  0.82146032  0.76783717  0.19159240    -0.00540
Br1438     Br  0.73404901  0.76093937  0.18658667    -0.00520
C1439       C  0.57444759  0.86662793  0.27650208    -0.01650
C1440       C  0.55372640  0.86857787  0.24316994     0.08030
C1441       C  0.56270250  0.85209202  0.21102766    -0.01760
C1442       C  0.59009531  0.83287348  0.21309490    -0.01760
C1443       C  0.60917801  0.83006324  0.24687476     0.08170
C1444       C  0.60178969  0.84726835  0.27829421    -0.01960
Br1445     Br  0.62701972  0.84258194  0.32507713    -0.00510
Br1446     Br  0.56439809  0.88862555  0.32128479    -0.00580
Br1447     Br  0.60079944  0.80934188  0.17000277    -0.00540
Br1448     Br  0.53804297  0.85538541  0.16350866    -0.00520
C1449       C  0.63349893  0.71140733  0.23146799    -0.01650
C1450       C  0.62569054  0.73128669  0.25945509     0.08030
C1451       C  0.60100466  0.72548825  0.28789737    -0.01760
C1452       C  0.58307415  0.70043815  0.28734024    -0.01760
C1453       C  0.59226059  0.67976316  0.26016572     0.08170
C1454       C  0.61914026  0.68530894  0.23332104    -0.01960
Br1455     Br  0.63903386  0.65763402  0.19954597    -0.00510
Br1456     Br  0.66070283  0.72051067  0.18779446    -0.00580
Br1457     Br  0.54484701  0.69620688  0.32313005    -0.00540
Br1458     Br  0.59160673  0.75211508  0.32779832    -0.00520
C1459       C  0.78348781  0.80352924  0.46792206    -0.01650
C1460       C  0.80562209  0.79965283  0.99987230     0.08030
C1461       C  0.79024139  0.78904728  0.03287215    -0.01760
C1462       C  0.75328250  0.78443782  0.03455361    -0.01760
C1463       C  0.73132624  0.79034916  0.00369256     0.08170
C1464       C  0.74657513  0.79930623  0.47017594    -0.01960
Br1465     Br  0.71655101  0.80549827  0.42697148    -0.00510
Br1466     Br  0.80302884  0.81333740  0.41982212    -0.00580
Br1467     Br  0.73225590  0.77135906  0.08010691    -0.00540
Br1468     Br  0.81839384  0.78171057  0.07714069    -0.00520
C1469       C  0.57371804  0.86710830  0.03256861    -0.01650
C1470       C  0.55539921  0.87037547  0.99797136     0.08030
C1471       C  0.56734379  0.85597387  0.46521220    -0.01760
C1472       C  0.59441516  0.83659359  0.46786305    -0.01760
C1473       C  0.60995813  0.83150507  0.00303005     0.08170
C1474       C  0.60086495  0.84761790  0.03495433    -0.01960
Br1475     Br  0.62494179  0.84210912  0.08218515    -0.00510
Br1476     Br  0.56095976  0.88786165  0.07755666    -0.00580
Br1477     Br  0.61027118  0.81673519  0.42327256    -0.00540
Br1478     Br  0.54751608  0.86298077  0.41615765    -0.00520
C1479       C  0.62415654  0.71603130  0.03964380    -0.01650
C1480       C  0.62282007  0.73181112  0.00732695     0.08030
C1481       C  0.60458488  0.72207667  0.47483793    -0.01760
C1482       C  0.58703282  0.69700544  0.47490036    -0.01760
C1483       C  0.58846883  0.68111959  0.00720474     0.08170
C1484       C  0.60744198  0.69057956  0.03946749    -0.01960
Br1485     Br  0.61226977  0.66820108  0.08281552    -0.00510
Br1486     Br  0.64814252  0.72962395  0.08451183    -0.00580
Br1487     Br  0.55968324  0.68515875  0.43113487    -0.00540
Br1488     Br  0.60448703  0.74277338  0.42975800    -0.00520
C1489       C  0.69222238  0.78742430  0.50634803     0.03330
C1490       C  0.67662628  0.76165324  0.50672429    -0.12820
C1491       C  0.63953280  0.75888620  0.50776531     0.00830
C1492       C  0.61808567  0.78199735  0.50790167    -0.11340
C1493       C  0.63336238  0.80776639  0.50669127     0.03320
C1494       C  0.67043122  0.81047449  0.50649490    -0.10770
H1495       H  0.69328991  0.74380549  0.50581246     0.08920
H1496       H  0.58939308  0.77988729  0.50797013     0.06450
H1497       H  0.68227575  0.83038880  0.50533172     0.06290
C1498       C  0.69349704  0.78845534  0.75640926     0.03330
C1499       C  0.67075980  0.81065445  0.75167742    -0.12820
C1500       C  0.63378659  0.80699636  0.75057408     0.00830
C1501       C  0.61958198  0.78099030  0.75283621    -0.11340
C1502       C  0.64170233  0.75866173  0.75764738     0.03320
C1503       C  0.67871350  0.76252887  0.75991407    -0.10770
H1504       H  0.68178387  0.83072265  0.74898162     0.08920
H1505       H  0.59103805  0.77813902  0.75093008     0.06450
H1506       H  0.69598533  0.74536061  0.76391598     0.06290
Zn1507     Zn  0.56746387  0.59830170  0.97219198     1.49720
Zn1508     Zn  0.54725696  0.55560944  0.53379974     1.49360
Zn1509     Zn  0.51749551  0.61621334  0.53850932     1.49110
Zn1510     Zn  0.48869689  0.57506632  0.97352726     1.49480
O1511       O  0.52987311  0.58596267  0.50463387    -1.83920
O1512       O  0.61273877  0.58061908  0.98480789    -0.74550
O1513       O  0.54076042  0.56376176  0.59008583    -0.74370
O1514       O  0.55011832  0.64825925  0.53306590    -0.73890
O1515       O  0.60005423  0.54850867  0.52390292    -0.74570
O1516       O  0.57809655  0.63762349  0.97965158    -0.74170
O1517       O  0.51796935  0.60529450  0.59273307    -0.74750
O1518       O  0.44617762  0.59925178  0.98536223    -0.74140
O1519       O  0.51872573  0.52191894  0.52055991    -0.74900
O1520       O  0.46904116  0.62943817  0.52611791    -0.74290
O1521       O  0.47586132  0.53619570  0.98254376    -0.74760
O1522       O  0.50007267  0.57746108  0.91747132    -0.74670
O1523       O  0.55661373  0.59076119  0.91750445    -0.74450
C1524       C  0.62274032  0.56116311  0.00448870     0.77330
C1525       C  0.52843621  0.58410137  0.60877319     0.77830
C1526       C  0.57123248  0.65429003  0.50664947     0.76780
C1527       C  0.44328255  0.62082260  0.50578397     0.77160
C1528       C  0.49074907  0.51755984  0.50085902     0.78300
C1529       C  0.52850643  0.58335810  0.90007012     0.77350
Zn1530     Zn  0.54827916  0.55496940  0.78392469     1.49720
Zn1531     Zn  0.48932475  0.57493901  0.72409403     1.49360
Zn1532     Zn  0.51981309  0.61521965  0.78893435     1.49110
Zn1533     Zn  0.56764535  0.59812388  0.72194300     1.49480
O1534       O  0.53088571  0.58510006  0.75469362    -1.83920
O1535       O  0.51970697  0.52128950  0.77050310    -0.74550
O1536       O  0.44756508  0.59973998  0.73717782    -0.74370
O1537       O  0.51768158  0.60396816  0.84259320    -0.73890
O1538       O  0.47654614  0.53594066  0.73304446    -0.74570
O1539       O  0.54220390  0.56306237  0.84035082    -0.74170
O1540       O  0.47265840  0.63070078  0.77524196    -0.74750
O1541       O  0.57555732  0.63791489  0.72922969    -0.74140
O1542       O  0.50001300  0.57791882  0.66770383    -0.74900
O1543       O  0.55608971  0.64514094  0.78698050    -0.74290
O1544       O  0.55656925  0.59106441  0.66734077    -0.74760
O1545       O  0.61389773  0.58057597  0.73374380    -0.74670
O1546       O  0.60090771  0.54845114  0.77373889    -0.74450
C1547       C  0.49153984  0.51713568  0.75100482     0.77330
C1548       C  0.44600472  0.62202920  0.75625193     0.77830
C1549       C  0.52890884  0.58313136  0.85882552     0.76780
C1550       C  0.57367693  0.65295564  0.75884401     0.77160
C1551       C  0.52826844  0.58401270  0.65006325     0.78300
C1552       C  0.62336085  0.56107212  0.75392786     0.77350
C1553       C  0.27328739  0.71878091  0.49120115     0.03330
C1554       C  0.29541689  0.69649937  0.49643105    -0.12820
C1555       C  0.33224116  0.70005392  0.49877701     0.00830
C1556       C  0.34672546  0.72607779  0.49743790    -0.11340
C1557       C  0.32492283  0.74845177  0.49099805     0.03320
C1558       C  0.28809289  0.74449847  0.48709309    -0.10770
H1559       H  0.28403113  0.67651149  0.49877705     0.08920
H1560       H  0.37517186  0.72881501  0.50078263     0.06450
H1561       H  0.27083816  0.76149689  0.48196464     0.06290
C1562       C  0.27374428  0.71935086  0.74716507     0.03330
C1563       C  0.29677649  0.69714095  0.74956036    -0.12820
C1564       C  0.33371245  0.70106111  0.74962258     0.00830
C1565       C  0.34746459  0.72730678  0.74767816    -0.11340
C1566       C  0.32462061  0.74954245  0.74579024     0.03320
C1567       C  0.28780017  0.74549579  0.74516383    -0.10770
H1568       H  0.28600342  0.67693399  0.75150962     0.08920
H1569       H  0.37599283  0.73046880  0.74819692     0.06450
H1570       H  0.27010827  0.76268905  0.74366254     0.06290
Zn1571     Zn  0.44871541  0.89185566  0.96143336     1.49720
Zn1572     Zn  0.47680205  0.93289336  0.52690012     1.49360
Zn1573     Zn  0.41942935  0.95200889  0.96539835     1.49110
Zn1574     Zn  0.39805977  0.90956566  0.52768106     1.49480
O1575       O  0.43597082  0.92198288  0.49538463    -1.83920
O1576       O  0.49658726  0.87759178  0.97590285    -0.74550
O1577       O  0.48979229  0.97175643  0.51796058    -0.74370
O1578       O  0.42597977  0.94368808  0.90954705    -0.73890
O1579       O  0.51919075  0.90862167  0.51573498    -0.74570
O1580       O  0.45039908  0.90276002  0.90723688    -0.74170
O1581       O  0.44761962  0.98582453  0.97891635    -0.74750
O1582       O  0.35272418  0.92927127  0.51711939    -0.74140
O1583       O  0.46532811  0.93007903  0.58283216    -0.74900
O1584       O  0.36683355  0.95873109  0.97347231    -0.74290
O1585       O  0.40984785  0.91447992  0.58246391    -0.74760
O1586       O  0.38757558  0.87028473  0.51835310    -0.74670
O1587       O  0.41344046  0.86115534  0.96388499    -0.74450
C1588       C  0.52215499  0.88659215  0.49634628     0.77330
C1589       C  0.47523206  0.99029392  0.99916476     0.77830
C1590       C  0.43903402  0.92359929  0.89103459     0.76780
C1591       C  0.34412540  0.94777893  0.49477313     0.77160
C1592       C  0.43758595  0.92243037  0.60005741     0.78300
C1593       C  0.39261585  0.85434510  0.49009071     0.77350
Zn1594     Zn  0.44574129  0.89076079  0.71246604     1.49720
Zn1595     Zn  0.47708553  0.93203061  0.77558055     1.49360
Zn1596     Zn  0.41980184  0.95220927  0.71501554     1.49110
Zn1597     Zn  0.39613576  0.91205770  0.77873080     1.49480
O1598       O  0.43486056  0.92193515  0.74548188    -1.83920
O1599       O  0.49411987  0.87662168  0.72409786    -0.74550
O1600       O  0.49046489  0.97106547  0.76730075    -0.74370
O1601       O  0.42797674  0.94380502  0.65956235    -0.73890
O1602       O  0.51895042  0.90750447  0.76228202    -0.74570
O1603       O  0.44437186  0.90057653  0.65764286    -0.74170
O1604       O  0.44809951  0.98573624  0.72902303    -0.74750
O1605       O  0.35231805  0.93306950  0.76823729    -0.74140
O1606       O  0.46697320  0.92868490  0.83176386    -0.74900
O1607       O  0.36709706  0.95979937  0.72160234    -0.74290
O1608       O  0.40951676  0.91783941  0.83308631    -0.74760
O1609       O  0.38151981  0.87327293  0.77048380    -0.74670
O1610       O  0.41233065  0.85969667  0.72011600    -0.74450
C1611       C  0.52076649  0.88536147  0.74296258     0.77330
C1612       C  0.47589243  0.98988833  0.74904801     0.77830
C1613       C  0.43714932  0.92240094  0.64125897     0.76780
C1614       C  0.34416631  0.95047388  0.74416056     0.77160
C1615       C  0.43862219  0.92357282  0.84981671     0.78300
C1616       C  0.38924488  0.85532867  0.74534347     0.77350
C1617       C  0.77532668  0.54023994  0.01039563     0.03330
C1618       C  0.78900647  0.51383186  0.00761388    -0.12820
C1619       C  0.82584158  0.50940157  0.00857543     0.00830
C1620       C  0.84902704  0.53150999  0.01128682    -0.11340
C1621       C  0.83586243  0.55790544  0.01257428     0.03320
C1622       C  0.79902033  0.56226873  0.01306413    -0.10770
H1623       H  0.77104000  0.99677596  0.00457312     0.08920
H1624       H  0.87751725  0.52817486  0.01125757     0.06450
H1625       H  0.78883695  0.58274319  0.01431380     0.06290
C1626       C  0.77465555  0.54126875  0.75629794     0.03330
C1627       C  0.78869231  0.51505762  0.75423776    -0.12820
C1628       C  0.82553834  0.51116159  0.75312769     0.00830
C1629       C  0.84828185  0.53355399  0.75350798    -0.11340
C1630       C  0.83455132  0.55987583  0.75594316     0.03320
C1631       C  0.79761058  0.56366976  0.75755958    -0.10770
H1632       H  0.77100051  0.99775469  0.75345420     0.08920
H1633       H  0.87679553  0.53047532  0.75230031     0.06450
H1634       H  0.78675472  0.58393053  0.75935786     0.06290
Zn1635     Zn  0.91873486  0.80685664  0.53099573     1.49720
Zn1636     Zn  0.89667726  0.84859255  0.96868489     1.49360
Zn1637     Zn  0.94758305  0.86776693  0.53515755     1.49110
Zn1638     Zn  0.97678297  0.82670050  0.97078026     1.49480
O1639       O  0.93524067  0.83724483  0.50138642    -1.83920
O1640       O  0.86688159  0.79780176  0.52001047    -0.74550
O1641       O  0.88422622  0.88740392  0.97681954    -0.74370
O1642       O  0.94648342  0.85734265  0.58956167    -0.73890
O1643       O  0.85185864  0.82851618  0.97915795    -0.74570
O1644       O  0.92412016  0.81564644  0.58719282    -0.74170
O1645       O  0.91467361  0.89938617  0.52849449    -0.74750
O1646       O  0.01926528  0.85109182  0.98332050    -0.74140
O1647       O  0.90928794  0.84375250  0.91423504    -0.74900
O1648       O  0.99643011  0.88117228  0.52413743    -0.74290
O1649       O  0.96569273  0.83012871  0.91467697    -0.74760
O1650       O  0.98983844  0.78762834  0.97991479    -0.74670
O1651       O  0.94805162  0.77366603  0.51922996    -0.74450
C1652       C  0.84353755  0.80882546  0.49948507     0.77330
C1653       C  0.89218248  0.90456204  0.50284412     0.77830
C1654       C  0.93604943  0.83622328  0.60576168     0.76780
C1655       C  0.02220022  0.87255830  0.50399448     0.77160
C1656       C  0.93767229  0.83699799  0.89708449     0.78300
C1657       C  0.97560961  0.76918549  0.49921398     0.77350
Zn1658     Zn  0.89547045  0.84848103  0.71867185     1.49720
Zn1659     Zn  0.91992107  0.80802010  0.78199514     1.49360
Zn1660     Zn  0.97644711  0.82814032  0.72103043     1.49110
Zn1661     Zn  0.94593973  0.86926230  0.78491462     1.49480
O1662       O  0.93467794  0.83832603  0.75151010    -1.83920
O1663       O  0.85161414  0.82778437  0.73015853    -0.74550
O1664       O  0.94795886  0.77455568  0.76827866    -0.74370
O1665       O  0.96484117  0.83110493  0.66480321    -0.73890
O1666       O  0.86724803  0.80064473  0.77618703    -0.74570
O1667       O  0.90749800  0.84232736  0.66410752    -0.74170
O1668       O  0.99030369  0.78908783  0.73008878    -0.74750
O1669       O  0.99457804  0.88288473  0.77392032    -0.74140
O1670       O  0.92850468  0.81603195  0.83730569    -0.74900
O1671       O  0.01852770  0.85300348  0.73413059    -0.74290
O1672       O  0.94445162  0.85934748  0.83981680    -0.74760
O1673       O  0.91315512  0.90068689  0.77693003    -0.74670
O1674       O  0.88173521  0.88750970  0.72654933    -0.74450
C1675       C  0.84397743  0.81028659  0.75424746     0.77330
C1676       C  0.97585787  0.77036859  0.74867720     0.77830
C1677       C  0.93620935  0.83629210  0.64704013     0.76780
C1678       C  0.02103718  0.87458347  0.75466152     0.77160
C1679       C  0.93749372  0.83735764  0.85590758     0.78300
C1680       C  0.89002961  0.90534460  0.75170494     0.77350
C1681       C  0.19382711  0.96997266  0.49366795     0.03330
C1682       C  0.17142111  0.94762224  0.49797116    -0.12820
C1683       C  0.13462380  0.95127824  0.50108997     0.00830
C1684       C  0.12042014  0.97742192  0.50112835    -0.11340
C1685       C  0.14234061  0.49990061  0.49554535     0.03320
C1686       C  0.17915125  0.99593160  0.49135432    -0.10770
H1687       H  0.18256706  0.92748226  0.49885391     0.08920
H1688       H  0.09200926  0.98018341  0.50452820     0.06450
H1689       H  0.19645569  0.51303628  0.48693624     0.06290
C1690       C  0.19377815  0.97157978  0.73959028     0.03330
C1691       C  0.17099804  0.94969051  0.74552514    -0.12820
C1692       C  0.13405648  0.95344560  0.74581692     0.00830
C1693       C  0.12018951  0.97948310  0.74169449    -0.11340
C1694       C  0.14270426  0.50160595  0.73613150     0.03320
C1695       C  0.17956231  0.99732666  0.73407324    -0.10770
H1696       H  0.18199075  0.92980572  0.74980954     0.08920
H1697       H  0.09169591  0.98256442  0.74321811     0.06450
H1698       H  0.19725671  0.51415206  0.72931700     0.06290
Zn1699     Zn  0.01965309  0.64337917  0.96331692     1.49720
Zn1700     Zn  0.06881741  0.66162882  0.53034332     1.49360
Zn1701     Zn  0.04768864  0.70388887  0.96722954     1.49110
Zn1702     Zn  0.99053842  0.68497363  0.52793596     1.49480
O1703       O  0.03138228  0.67383190  0.49717356    -1.83920
O1704       O  0.05530882  0.61299940  0.96715556    -0.74550
O1705       O  0.11427752  0.68034784  0.51861539    -0.74370
O1706       O  0.04046452  0.69587910  0.91147180    -0.73890
O1707       O  0.07842620  0.62181809  0.52327089    -0.74570
O1708       O  0.01882405  0.65400944  0.90897145    -0.74170
O1709       O  0.10023310  0.71024370  0.97541562    -0.74750
O1710       O  0.97618043  0.72335317  0.51659756    -0.74140
O1711       O  0.05747972  0.66879498  0.58481997    -0.74900
O1712       O  0.01990791  0.73778000  0.98000173    -0.74290
O1713       O  0.00199316  0.68417387  0.58376403    -0.74760
O1714       O  0.95002592  0.65854208  0.51982787    -0.74670
O1715       O  0.97193429  0.62857298  0.97773150    -0.74450
C1716       C  0.07462526  0.60594891  0.49462804     0.77330
C1717       C  0.12294793  0.69884362  0.49634591     0.77830
C1718       C  0.02872444  0.67531978  0.89287831     0.76780
C1719       C  0.99137493  0.74201166  0.49854501     0.77160
C1720       C  0.02967325  0.67720096  0.60166786     0.78300
C1721       C  0.94743508  0.63659664  0.00019261     0.77350
Zn1722     Zn  0.04868629  0.70485319  0.71770621     1.49720
Zn1723     Zn  0.06779915  0.66120516  0.77977634     1.49360
Zn1724     Zn  0.99055973  0.68631359  0.77818772     1.49110
Zn1725     Zn  0.01755387  0.64527305  0.71212915     1.49480
O1726       O  0.03094084  0.67482971  0.74695771    -1.83920
O1727       O  0.10107755  0.71079178  0.72789142    -0.74550
O1728       O  0.05517679  0.66523868  0.83439641    -0.74370
O1729       O  0.97678834  0.72469494  0.76648163    -0.73890
O1730       O  0.11360291  0.68074273  0.77142495    -0.74570
O1731       O  0.02040278  0.73891269  0.72952921    -0.74170
O1732       O  0.00231596  0.68526866  0.83418494    -0.74750
O1733       O  0.96956670  0.63097548  0.72605911    -0.74140
O1734       O  0.07836419  0.62214237  0.76845733    -0.74900
O1735       O  0.94933023  0.66039120  0.76994181    -0.74290
O1736       O  0.05284150  0.61444105  0.71333894    -0.74760
O1737       O  0.01616498  0.65693760  0.65863656    -0.74670
O1738       O  0.04362318  0.69677901  0.66157173    -0.74450
C1739       C  0.12302891  0.69930536  0.74960133     0.77330
C1740       C  0.02864931  0.67545138  0.85170078     0.77830
C1741       C  0.99183485  0.74323135  0.74805966     0.76780
C1742       C  0.94570802  0.63900313  0.74923252     0.77160
C1743       C  0.07383492  0.60705244  0.73917220     0.78300
C1744       C  0.02928784  0.67729127  0.64278312     0.77350
C1745       C  0.13787239  0.54964400  0.76078906    -0.01650
C1746       C  0.12746653  0.52927043  0.73430000     0.08030
C1747       C  0.10128915  0.53502187  0.70719104    -0.01760
C1748       C  0.08309409  0.55995319  0.70885433    -0.01760
C1749       C  0.09344445  0.58064977  0.73561636     0.08170
C1750       C  0.12288261  0.57561281  0.75975447    -0.01960
Br1751     Br  0.14561305  0.60400006  0.79028218    -0.00510
Br1752     Br  0.17082626  0.54177607  0.80089527    -0.00580
Br1753     Br  0.04346247  0.56412843  0.67457178    -0.00540
Br1754     Br  0.09106239  0.50883513  0.66680439    -0.00520
C1755       C  0.09904407  0.53251352  0.96779664    -0.01650
C1756       C  0.12640811  0.52739302  0.49392624     0.08030
C1757       C  0.13768540  0.54835994  0.51909700    -0.01760
C1758       C  0.12280132  0.57437478  0.51725617    -0.01760
C1759       C  0.09300649  0.57901540  0.49347460     0.08170
C1760       C  0.08105347  0.55749857  0.96896687    -0.01960
Br1761     Br  0.03888735  0.56050173  0.93791045    -0.00510
Br1762     Br  0.08695506  0.50555082  0.92899018    -0.00580
Br1763     Br  0.14584508  0.60335429  0.54625920    -0.00540
Br1764     Br  0.17198020  0.54131436  0.55824849    -0.00520
C1765       C  0.07899527  0.89017712  0.72503467    -0.01650
C1766       C  0.05440250  0.89133147  0.75549766     0.08030
C1767       C  0.06048238  0.91060865  0.78564271    -0.01760
C1768       C  0.08760541  0.93006670  0.78304962    -0.01760
C1769       C  0.10939687  0.93044340  0.75091612     0.08170
C1770       C  0.10600178  0.90985925  0.72270730    -0.01960
Br1771     Br  0.13701044  0.90964849  0.67930779    -0.00510
Br1772     Br  0.07634449  0.86257550  0.68515108    -0.00580
Br1773     Br  0.09520091  0.95648529  0.82382931    -0.00540
Br1774     Br  0.03306581  0.91068304  0.83183907    -0.00520
C1775       C  0.09473465  0.92125190  0.53728780    -0.01650
C1776       C  0.11029315  0.92788379  0.50278640     0.08030
C1777       C  0.10017807  0.91384913  0.96924216    -0.01760
C1778       C  0.07280196  0.89442194  0.96972490    -0.01760
C1779       C  0.05548125  0.88882927  0.50404058     0.08170
C1780       C  0.06777031  0.90154733  0.53807992    -0.01960
Br1781     Br  0.04830872  0.89188753  0.58622545    -0.00510
Br1782     Br  0.10986048  0.93991471  0.58330941    -0.00580
Br1783     Br  0.05759587  0.87745500  0.92251207    -0.00540
Br1784     Br  0.12234236  0.92265894  0.92210445    -0.00520
C1785       C  0.88353297  0.58665077  0.78707080    -0.01650
C1786       C  0.85941954  0.58311625  0.75670826     0.08030
C1787       C  0.86149812  0.60017834  0.72563901    -0.01760
C1788       C  0.88879861  0.61957832  0.72403307    -0.01760
C1789       C  0.91395760  0.62200309  0.75342040     0.08170
C1790       C  0.91084754  0.60596418  0.78532542    -0.01960
Br1791     Br  0.94570476  0.60905721  0.82536576    -0.00510
Br1792     Br  0.87954489  0.56465933  0.83085240    -0.00580
Br1793     Br  0.89233814  0.64259619  0.68133355    -0.00540
Br1794     Br  0.82848877  0.59595954  0.68411792    -0.00520
C1795       C  0.84194660  0.96898382  0.78560797    -0.01650
C1796       C  0.84061658  0.98363808  0.75227358     0.08030
C1797       C  0.85486610  0.97248866  0.71854115    -0.01760
C1798       C  0.87084639  0.94679252  0.71816898    -0.01760
C1799       C  0.87245704  0.93207286  0.75166370     0.08170
C1800       C  0.85758157  0.94318768  0.78531188    -0.01960
Br1801     Br  0.85712863  0.92278927  0.83085927    -0.00510
Br1802     Br  0.82323247  0.98472465  0.83200477    -0.00580
Br1803     Br  0.89221414  0.93269821  0.67208148    -0.00540
Br1804     Br  0.85252635  0.99266515  0.67290612    -0.00520
C1805       C  0.86916466  0.59143427  0.97521638    -0.01650
C1806       C  0.86120508  0.58063701  0.01051916     0.08030
C1807       C  0.88028467  0.58942470  0.54289132    -0.01760
C1808       C  0.90767251  0.60864263  0.53987612    -0.01760
C1809       C  0.91587790  0.61923279  0.00438429     0.08170
C1810       C  0.89604796  0.61096704  0.97224722    -0.01960
Br1811     Br  0.90569216  0.62646626  0.92404359    -0.00510
Br1812     Br  0.84529415  0.57790166  0.93028262    -0.00580
Br1813     Br  0.93586481  0.61857562  0.58382877    -0.00540
Br1814     Br  0.87006300  0.57391466  0.59089832    -0.00520
C1815       C  0.83597891  0.96387761  0.53561523    -0.01650
C1816       C  0.84069554  0.98174502  0.00581364     0.08030
C1817       C  0.86154797  0.97374156  0.97430956    -0.01760
C1818       C  0.87863038  0.94848462  0.97337058    -0.01760
C1819       C  0.87431703  0.93095217  0.00353733     0.08170
C1820       C  0.85230763  0.93837447  0.53416463    -0.01960
Br1821     Br  0.84348374  0.91311500  0.57348774    -0.00510
Br1822     Br  0.80878991  0.97460478  0.57951379    -0.00580
Br1823     Br  0.90917216  0.93839800  0.93152197    -0.00540
Br1824     Br  0.86642478  0.49720798  0.93214937    -0.00520
C1825       C  0.25027694  0.95790996  0.70739620    -0.01650
C1826       C  0.23268289  0.96765483  0.74008838     0.08030
C1827       C  0.25208711  0.97310638  0.77354397    -0.01760
C1828       C  0.28904512  0.96898529  0.77425826    -0.01760
C1829       C  0.30664469  0.95881557  0.74170752     0.08170
C1830       C  0.28718025  0.95335745  0.70819444    -0.01960
Br1831     Br  0.31038269  0.93746706  0.66430407    -0.00510
Br1832     Br  0.22338716  0.94976183  0.66204518    -0.00580
Br1833     Br  0.31563032  0.97743093  0.81985460    -0.00540
Br1834     Br  0.22774074  0.98474330  0.81900824    -0.00520
C1835       C  0.28656930  0.95158490  0.95980217    -0.01650
C1836       C  0.30652679  0.95608086  0.49322056     0.08030
C1837       C  0.28969646  0.96631812  0.52614106    -0.01760
C1838       C  0.25289846  0.97120302  0.52603796    -0.01760
C1839       C  0.23280470  0.96619686  0.49291263     0.08170
C1840       C  0.24974435  0.95668077  0.95967629    -0.01960
Br1841     Br  0.22221506  0.95008807  0.91430416    -0.00510
Br1842     Br  0.30915828  0.93677838  0.91487310    -0.00580
Br1843     Br  0.22973386  0.98361232  0.57180178    -0.00540
Br1844     Br  0.31725768  0.97406093  0.57126041    -0.00520
C1845       C  0.21780791  0.70314425  0.71553912    -0.01650
C1846       C  0.23482218  0.71531898  0.74726983     0.08030
C1847       C  0.21465099  0.72363299  0.77909244    -0.01760
C1848       C  0.17772569  0.71913508  0.77950310    -0.01760
C1849       C  0.16092327  0.70643894  0.74809442     0.08170
C1850       C  0.18094638  0.69855770  0.71604782    -0.01960
Br1851     Br  0.15811485  0.68014426  0.67357966    -0.00510
Br1852     Br  0.24485529  0.69319763  0.67105257    -0.00580
Br1853     Br  0.14996096  0.73057958  0.82282256    -0.00540
Br1854     Br  0.23771734  0.74054435  0.82250360    -0.00520
C1855       C  0.35244015  0.78914601  0.77973928    -0.01650
C1856       C  0.33944028  0.77715346  0.74585203     0.08030
C1857       C  0.34127304  0.79123959  0.71207045    -0.01760
C1858       C  0.35676612  0.81712778  0.71200381    -0.01760
C1859       C  0.37128286  0.82873686  0.74567290     0.08170
C1860       C  0.36887813  0.81465001  0.77963496    -0.01960
Br1861     Br  0.38986783  0.82922676  0.82586493    -0.00510
Br1862     Br  0.34698599  0.77076042  0.82654537    -0.00580
Br1863     Br  0.35646894  0.83699416  0.66598428    -0.00540
Br1864     Br  0.32296556  0.77477072  0.66579738    -0.00520
C1865       C  0.21600169  0.71898541  0.52614330    -0.01650
C1866       C  0.23444316  0.71530603  0.49183293     0.08030
C1867       C  0.21606017  0.70741476  0.95865040    -0.01760
C1868       C  0.17917846  0.70291786  0.95978286    -0.01760
C1869       C  0.16068193  0.70644371  0.49419261     0.08170
C1870       C  0.17911524  0.71474675  0.52729430    -0.01960
Br1871     Br  0.15380972  0.72059656  0.57420757    -0.00510
Br1872     Br  0.24159683  0.72867024  0.57191255    -0.00580
Br1873     Br  0.15465480  0.68986555  0.91481753    -0.00540
Br1874     Br  0.24184571  0.70174756  0.91210283    -0.00520
C1875       C  0.36863705  0.78076617  0.96347833    -0.01650
C1876       C  0.34079313  0.77590672  0.48898157     0.08030
C1877       C  0.32879974  0.79715681  0.51316895    -0.01760
C1878       C  0.34345310  0.82318898  0.51086837    -0.01760
C1879       C  0.37393086  0.82756400  0.48814498     0.08170
C1880       C  0.38644954  0.80584477  0.96445378    -0.01960
Br1881     Br  0.42893491  0.80876517  0.93411837    -0.00510
Br1882     Br  0.38181595  0.75326586  0.92596230    -0.00580
Br1883     Br  0.31906563  0.85252346  0.53758062    -0.00540
Br1884     Br  0.29399663  0.79054821  0.55188331    -0.00520
C1885       C  0.67927756  0.54928551  0.78907841    -0.01650
C1886       C  0.66156497  0.55361745  0.75449537     0.08030
C1887       C  0.68127999  0.55292555  0.72049019    -0.01760
C1888       C  0.71828162  0.54904345  0.72131022    -0.01760
C1889       C  0.73578433  0.54520709  0.75580292     0.08170
C1890       C  0.71626327  0.54487808  0.78956859    -0.01960
Br1891     Br  0.74066444  0.03902379  0.83656214    -0.00510
Br1892     Br  0.65383899  0.55111086  0.83631523    -0.00580
Br1893     Br  0.74537504  0.54911976  0.67516134    -0.00540
Br1894     Br  0.65784546  0.55627878  0.67226988    -0.00520
C1895       C  0.40421126  0.65507413  0.78853257    -0.01650
C1896       C  0.41318206  0.63893827  0.75609194     0.08030
C1897       C  0.39226821  0.64104872  0.72293266    -0.01760
C1898       C  0.36518058  0.66065100  0.72136666    -0.01760
C1899       C  0.35845054  0.67800624  0.75279279     0.08170
C1900       C  0.37713329  0.67454573  0.78669473    -0.01960
Br1901     Br  0.36556138  0.69679188  0.83073569    -0.00510
Br1902     Br  0.42799756  0.65048492  0.83633999    -0.00580
Br1903     Br  0.33850134  0.66485961  0.67536289    -0.00540
Br1904     Br  0.40122106  0.61849822  0.67847044    -0.00520
C1905       C  0.68475031  0.56340376  0.97625210    -0.01330
C1906       C  0.66159317  0.55406450  0.00494906     0.08030
C1907       C  0.67662918  0.53926736  0.53482292    -0.01760
C1908       C  0.71371227  0.53530178  0.53684861    -0.01760
C1909       C  0.73627604  0.54481931  0.00853458     0.08170
C1910       C  0.72152859  0.55835917  0.97796227    -0.01960
Br1911     Br  0.75173848  0.56922400  0.93713037    -0.00510
Br1912     Br  0.66780146  0.58281824  0.93303073    -0.00580
Br1913     Br  0.73385302  0.01800186  0.57990455    -0.00540
Br1914     Br  0.64782028  0.02443413  0.57431601    -0.00520
C1915       C  0.39097316  0.64067733  0.97134807    -0.01650
C1916       C  0.41012812  0.63721616  0.50536892     0.08030
C1917       C  0.39968166  0.65212674  0.53839308    -0.01760
C1918       C  0.37313689  0.67198450  0.53648027    -0.01760
C1919       C  0.35615062  0.67665473  0.50200016     0.08170
C1920       C  0.36405885  0.66036309  0.96983397    -0.01960
Br1921     Br  0.33943231  0.66636080  0.92295552    -0.00510
Br1922     Br  0.40254489  0.62024084  0.92565792    -0.00580
Br1923     Br  0.36034808  0.69346314  0.58089064    -0.00540
Br1924     Br  0.42098339  0.64544514  0.58684717    -0.00520
C1925       C  0.74852084  0.80885039  0.78630182    -0.01650
C1926       C  0.73272192  0.79242828  0.75746224     0.08030
C1927       C  0.75449363  0.78065428  0.72889434    -0.01760
C1928       C  0.79143820  0.78492106  0.72950488    -0.01760
C1929       C  0.80666161  0.80207947  0.75742272     0.08170
C1930       C  0.78524296  0.81419273  0.78567823    -0.01960
Br1931     Br  0.80604827  0.83964014  0.82188595    -0.00510
Br1932     Br  0.72023725  0.82416071  0.82681848    -0.00580
Br1933     Br  0.82146287  0.76783512  0.69159710    -0.00540
Br1934     Br  0.73405163  0.76093827  0.68658981    -0.00520
C1935       C  0.57445034  0.86662851  0.77650432    -0.01650
C1936       C  0.55372918  0.86857851  0.74317222     0.08030
C1937       C  0.56270543  0.85209292  0.71102979    -0.01760
C1938       C  0.59009812  0.83287428  0.71309694    -0.01760
C1939       C  0.60918055  0.83006372  0.74687689     0.08170
C1940       C  0.60179229  0.84726880  0.77829642    -0.01960
Br1941     Br  0.62702207  0.84258216  0.82507938    -0.00510
Br1942     Br  0.56440107  0.88862636  0.82128683    -0.00580
Br1943     Br  0.60080242  0.80934300  0.67000454    -0.00540
Br1944     Br  0.53804628  0.85538685  0.66351068    -0.00520
C1945       C  0.63349943  0.71140766  0.73146771    -0.01650
C1946       C  0.62569125  0.73128681  0.75945519     0.08030
C1947       C  0.60100475  0.72548839  0.78789687    -0.01760
C1948       C  0.58307350  0.70043859  0.78733883    -0.01760
C1949       C  0.59225973  0.67976373  0.76016398     0.08170
C1950       C  0.61913985  0.68530946  0.73331979    -0.01960
Br1951     Br  0.63903280  0.65763473  0.69954398    -0.00510
Br1952     Br  0.66070442  0.72051110  0.68779502    -0.00580
Br1953     Br  0.54484569  0.69620761  0.82312798    -0.00540
Br1954     Br  0.59160698  0.75211488  0.82779833    -0.00520
C1955       C  0.78348596  0.80354109  0.96792325    -0.01650
C1956       C  0.80562411  0.79963754  0.49987013     0.08030
C1957       C  0.79024298  0.78902970  0.53286828    -0.01760
C1958       C  0.75328343  0.78442337  0.53455036    -0.01760
C1959       C  0.73132714  0.79033910  0.50369112     0.08170
C1960       C  0.74657375  0.79931548  0.97017671    -0.01960
Br1961     Br  0.71654944  0.80550316  0.92697106    -0.00510
Br1962     Br  0.80302689  0.81334836  0.91982302    -0.00580
Br1963     Br  0.73225641  0.77134295  0.58010253    -0.00540
Br1964     Br  0.81839587  0.78168413  0.57713328    -0.00520
C1965       C  0.57372108  0.86710305  0.53256619    -0.01650
C1966       C  0.55540192  0.87036996  0.49796902     0.08030
C1967       C  0.56734092  0.85597934  0.96521453    -0.01760
C1968       C  0.59441226  0.83659906  0.96786530    -0.01760
C1969       C  0.60996108  0.83149970  0.50302781     0.08170
C1970       C  0.60086808  0.84761273  0.53495194    -0.01960
Br1971     Br  0.62494518  0.84210415  0.58218269    -0.00510
Br1972     Br  0.56096328  0.88785663  0.57755418    -0.00580
Br1973     Br  0.61026853  0.81674104  0.92327464    -0.00540
Br1974     Br  0.54751294  0.86298619  0.91616005    -0.00520
C1975       C  0.62415290  0.71602671  0.53964474    -0.01650
C1976       C  0.62281792  0.73180556  0.50732692     0.08030
C1977       C  0.60458513  0.72208317  0.97483863    -0.01760
C1978       C  0.58703187  0.69701239  0.97490111    -0.01760
C1979       C  0.58846906  0.68111335  0.50720469     0.08170
C1980       C  0.60743955  0.69057459  0.53946846    -0.01960
Br1981     Br  0.61226537  0.66819735  0.58281803    -0.00510
Br1982     Br  0.64813516  0.72962124  0.58451397    -0.00580
Br1983     Br  0.55967962  0.68516741  0.93113666    -0.00540
Br1984     Br  0.60448642  0.74278049  0.92975927    -0.00520
loop_ 
_geom_bond_atom_site_label_1 
_geom_bond_atom_site_label_2 
_geom_bond_distance 
_geom_bond_site_symmetry_2 
_ccdc_geom_bond_type 
C1            C2   1.404       .  A
C1            C6   1.406       .  A
C1          C471   1.482       .  S
C2            C3   1.403       .  A
C2            H7   1.084       .  S
C3            C4   1.401       .  A
C3          C488   1.480       .  S
C4            C5   1.401       .  A
C4            H8   1.085       .  S
C5            C6   1.401       .  A
C5          C481   1.478       .  S
C6            H9   1.084       .  S
C10          C11   1.408       .  A
C10          C15   1.408       .  A
C10         C438   1.489       .  S
C11          C12   1.403       .  A
C11          H16   1.084       .  S
C12          C13   1.399       .  A
C12         C451   1.480       .  S
C13          C14   1.399       .  A
C13          H17   1.085       .  S
C14          C15   1.407       .  A
C14         C458   1.486       .  S
C15          H18   1.084       .  S
Zn19         O24   1.973       .  S
Zn19         O28   1.996       .  S
Zn19         O35   2.002       .  S
Zn19        O519   1.936       .  S
Zn20         O25   2.037       .  S
Zn20         O27   2.047       .  S
Zn20         O31   2.024       .  S
Zn20         O23   1.964       .  S
Zn21         O26   2.020       .  S
Zn21         O29   2.013       .  S
Zn21         O32   1.991       .  S
Zn21         O23   1.946       .  S
Zn22         O30   2.036       .  S
Zn22         O33   2.020       .  S
Zn22         O34   2.040       .  S
Zn22        O519   1.963       .  S
O23        Zn515   1.936   1_554  S
O23        Zn518   1.963   1_554  S
O24          C36   1.265       .  A
O25          C37   1.275       .  A
O26          C38   1.272       .  A
O27         C532   1.275       .  A
O28         C534   1.270       .  A
O29          C37   1.272       .  A
O30         C535   1.275       .  A
O31          C40   1.276       .  A
O32          C39   1.271       .  A
O33         C536   1.275       .  A
O34          C41   1.275       .  A
O35          C41   1.271       .  A
C36         C418   1.504       .  S
C36         O523   1.275       .  A
C37          C63   1.463       .  S
C38         C491   1.477       .  S
C38         O524   1.270   1_554  A
C39         C428   1.489       .  S
C39         O526   1.275   1_554  A
C40        C1589   1.470   1_544  S
C40         O529   1.275   1_554  A
C41          C61   1.461       .  S
Zn42         O47   2.026       .  S
Zn42         O51   2.039       .  S
Zn42         O58   2.038       .  S
Zn42         O46   1.957       .  S
Zn43         O48   2.040       .  S
Zn43         O50   2.025       .  S
Zn43         O54   2.049       .  S
Zn43         O46   1.956       .  S
Zn44         O49   2.001       .  S
Zn44         O52   1.999       .  S
Zn44         O55   2.016       .  S
Zn44         O46   1.937       .  S
Zn45         O53   2.000       .  S
Zn45         O56   1.997       .  S
Zn45         O57   1.996       .  S
Zn45         O46   1.932       .  S
O47          C59   1.276       .  A
O48          C60   1.276       .  A
O49          C61   1.270       .  A
O50          C59   1.276       .  A
O51          C61   1.275       .  A
O52          C60   1.272       .  A
O53          C62   1.268       .  A
O54          C63   1.276       .  A
O55          C62   1.269       .  A
O56          C63   1.269       .  A
O57          C64   1.272       .  A
O58          C64   1.276       .  A
C59        C1116   1.471   1_545  S
C60         C408   1.493       .  S
C62         C461   1.499       .  S
C64         C398   1.485       .  S
C65          C66   1.400       .  A
C65          C70   1.402       .  A
C65         C378   1.472       .  S
C66          C67   1.398       .  A
C66          H71   1.084       .  S
C67          C68   1.401       .  A
C67         C431   1.475   1_556  S
C68          C69   1.404       .  A
C68          H72   1.084   1_556  S
C69          C70   1.405       .  A
C69         C388   1.488       .  S
C70          H73   1.083       .  S
C74          C75   1.406       .  A
C74          C79   1.402       .  A
C74         C358   1.478       .  S
C75          C76   1.403       .  A
C75          H80   1.084       .  S
C76          C77   1.402       .  A
C76         C411   1.481       .  S
C77          C78   1.401       .  A
C77          H81   1.085       .  S
C78          C79   1.400       .  A
C78         C368   1.476       .  S
C79          H82   1.084       .  S
Zn83         O88   2.007       .  S
Zn83         O92   2.013       .  S
Zn83         O99   2.021       .  S
Zn83        O583   1.946       .  S
Zn84         O89   2.020       .  S
Zn84         O91   2.030       .  S
Zn84         O95   2.039       .  S
Zn84         O87   1.961   1_554  S
Zn85         O90   2.024       .  S
Zn85         O93   2.024       .  S
Zn85         O96   2.027       .  S
Zn85        O583   1.957       .  S
Zn86         O94   2.007       .  S
Zn86         O97   1.997       .  S
Zn86         O98   2.001       .  S
Zn86         O87   1.944   1_554  S
O87        Zn579   1.946       .  S
O87        Zn581   1.957       .  S
O88         C596   1.274       .  A
O89         C597   1.275   1_554  A
O90         C102   1.273       .  A
O91         C100   1.275   1_554  A
O92         C102   1.271       .  A
O93         C101   1.276       .  A
O94         C103   1.273   1_554  A
O95         C104   1.274       .  A
O96         C599   1.274       .  A
O97         C104   1.269       .  A
O98         C105   1.269   1_554  A
O99         C601   1.271       .  A
C100        C478   1.489       .  S
C100        O584   1.274       .  A
C101       C1528   1.470       .  S
C101        O585   1.275       .  A
C102        C127   1.460       .  S
C103        C348   1.475       .  S
C103        O592   1.274       .  A
C104        C125   1.460       .  S
C105        C391   1.500       .  S
C105        O595   1.271       .  A
Zn106       O111   1.998       .  S
Zn106       O115   2.019       .  S
Zn106       O122   2.011       .  S
Zn106       O110   1.950       .  S
Zn107       O112   2.028       .  S
Zn107       O114   2.037       .  S
Zn107       O118   2.040       .  S
Zn107       O110   1.966       .  S
Zn108       O113   2.019       .  S
Zn108       O116   2.018       .  S
Zn108       O119   2.031       .  S
Zn108       O110   1.960       .  S
Zn109       O117   1.991       .  S
Zn109       O120   2.000       .  S
Zn109       O121   2.009       .  S
Zn109       O110   1.949       .  S
O111        C123   1.271       .  A
O112        C124   1.276       .  A
O113        C125   1.272       .  A
O114        C123   1.275       .  A
O115        C125   1.273       .  A
O116        C124   1.275       .  A
O117        C126   1.270       .  A
O118        C127   1.275       .  A
O119        C126   1.275       .  A
O120        C127   1.271       .  A
O121        C128   1.271       .  A
O122        C128   1.272       .  A
C123        C448   1.494       .  S
C124       C1051   1.471       .  S
C126        C341   1.475       .  S
C128        C371   1.480       .  S
C129        C130   1.406       .  A
C129        C134   1.409       .  A
C129        C421   1.489       .  S
C130        C131   1.404       .  A
C130       H1127   1.084   1_545  S
C131        C132   1.400       .  A
C131       C1320   1.480   1_545  S
C132        C133   1.398       .  A
C132        H136   1.085       .  S
C133        C134   1.403       .  A
C133        C318   1.478       .  S
C134        H137   1.084       .  S
H135       C1122   1.084       .  S
C138        C139   1.402       .  A
C138        C143   1.405       .  A
C138        C401   1.476       .  S
C139        C140   1.400       .  A
C139       H1136   1.084   1_545  S
C140        C141   1.400       .  A
C140       C1300   1.476   1_545  S
C141        C142   1.403       .  A
C141        H145   1.085       .  S
C142        C143   1.404       .  A
C142        C298   1.482       .  S
C143        H146   1.084       .  S
H144       C1131   1.084       .  S
Zn147       O152   2.035       .  S
Zn147       O156   2.033       .  S
Zn147       O163   2.013       .  S
Zn147       O151   1.964       .  S
Zn148       O153   1.990       .  S
Zn148       O155   1.999       .  S
Zn148       O159   1.995       .  S
Zn148       O647   1.949       .  S
Zn149       O154   2.013       .  S
Zn149       O157   2.017       .  S
Zn149       O160   1.998       .  S
Zn149       O151   1.951       .  S
Zn150       O158   2.041   1_655  S
Zn150       O161   2.043       .  S
Zn150       O162   2.033       .  S
Zn150       O647   1.966       .  S
O151       Zn644   1.949   1_554  S
O151       Zn646   1.966   1_554  S
O152        C164   1.274   1_554  A
O153        C661   1.268       .  A
O154        C166   1.272       .  A
O155        C660   1.270       .  A
O156        C166   1.275       .  A
O157        C165   1.273       .  A
O158        C663   1.276       .  A
O159        C168   1.270       .  A
O160        C167   1.271   1_655  A
O161        C168   1.276       .  A
O162        C665   1.277       .  A
O163        C169   1.273   1_554  A
C164        C468   1.497       .  S
C164        O651   1.270       .  A
C165        C827   1.469       .  S
C165        O649   1.268   1_554  A
C166        C189   1.462       .  S
C167        C291   1.488       .  S
C167        O654   1.276   1_554  A
C168        C191   1.460       .  S
C169        C231   1.471       .  S
C169        O658   1.277       .  A
Zn170       O175   1.992       .  S
Zn170       O179   2.000       .  S
Zn170       O186   2.012       .  S
Zn170       O174   1.953       .  S
Zn171       O176   2.012       .  S
Zn171       O178   2.023       .  S
Zn171       O182   2.011       .  S
Zn171       O174   1.959       .  S
Zn172       O177   2.048       .  S
Zn172       O180   2.039       .  S
Zn172       O183   2.047   1_655  S
Zn172       O174   1.966       .  S
Zn173       O181   1.994       .  S
Zn173       O184   2.023       .  S
Zn173       O185   2.014       .  S
Zn173       O174   1.950       .  S
O175        C187   1.270       .  A
O176        C188   1.274       .  A
O177        C189   1.277       .  A
O178        C187   1.273       .  A
O179        C189   1.271       .  A
O180        C188   1.277       .  A
O181        C190   1.270   1_655  A
O182        C191   1.271       .  A
O183        C190   1.276       .  A
O184        C191   1.273       .  A
O185        C192   1.272       .  A
O186        C192   1.271       .  A
C187        C441   1.467       .  S
C188        C253   1.472       .  S
C190        C278   1.503       .  S
C192        C311   1.480       .  S
C193        C194   1.403       .  A
C193        C198   1.404       .  A
C193        C351   1.479       .  S
C194        C195   1.401   1_556  A
C194        H199   1.084       .  S
C195        C196   1.401       .  A
C195        C288   1.479       .  S
C196       C1189   1.404   1_554  A
C196        H200   1.084       .  S
C197       C1188   1.404   1_556  A
C197       C1190   1.407       .  A
C197        C268   1.491   1_565  S
C198       C1189   1.407       .  A
C198       H1193   1.084       .  S
H201       C1190   1.084   1_545  S
C202        C203   1.403       .  A
C202        C207   1.403       .  A
C202        C338   1.477       .  S
C203        C204   1.403       .  A
C203        H208   1.084       .  S
C204        C205   1.403       .  A
C204        C281   1.484       .  S
C205       C1198   1.404       .  A
C205        H209   1.084       .  S
C206       C1197   1.404   1_545  A
C206       C1199   1.405   1_545  A
C206        C258   1.489       .  S
C207       C1198   1.405       .  A
C207       H1202   1.084       .  S
H210       C1199   1.084   1_545  S
Zn211       O216   2.025       .  S
Zn211       O220   2.013       .  S
Zn211       O227   2.012   1_455  S
Zn211       O711   1.945       .  S
Zn212       O217   1.996       .  S
Zn212       O219   2.012       .  S
Zn212       O223   1.998       .  S
Zn212       O215   1.942   1_554  S
Zn213       O218   2.019       .  S
Zn213       O221   2.020       .  S
Zn213       O224   2.017       .  S
Zn213       O711   1.955       .  S
Zn214       O222   2.029       .  S
Zn214       O225   2.025   1_655  S
Zn214       O226   2.022       .  S
Zn214       O215   1.956   1_654  S
O215       Zn707   1.945       .  S
O215       Zn709   1.955       .  S
O216        C724   1.271       .  A
O217        C229   1.272   1_554  A
O218        C230   1.272       .  A
O219        C228   1.270   1_554  A
O220        C230   1.272       .  A
O221        C725   1.274       .  A
O222        C231   1.277   1_554  A
O223        C232   1.270       .  A
O224        C727   1.274   1_455  A
O225        C232   1.272       .  A
O226        C729   1.275       .  A
O227        C233   1.275       .  A
C228        C271   1.502       .  S
C228        O712   1.271       .  A
C229        C381   1.471       .  S
C229        O717   1.274       .  A
C230        C252   1.459       .  S
C231        O720   1.274   1_655  A
C232        C256   1.457       .  S
C233        C321   1.476       .  S
C233        O722   1.275       .  A
Zn234       O239   2.022       .  S
Zn234       O243   2.028       .  S
Zn234       O250   2.024       .  S
Zn234       O238   1.959       .  S
Zn235       O240   1.998       .  S
Zn235       O242   2.003       .  S
Zn235       O246   2.003       .  S
Zn235       O238   1.943       .  S
Zn236       O241   2.027       .  S
Zn236       O244   2.034   1_655  S
Zn236       O247   2.027       .  S
Zn236       O238   1.956   1_655  S
Zn237       O245   2.008   1_455  S
Zn237       O248   2.026       .  S
Zn237       O249   2.001       .  S
Zn237       O238   1.947       .  S
O239        C251   1.274       .  A
O240        C252   1.270       .  A
O241        C253   1.277       .  A
O242        C251   1.272       .  A
O243        C253   1.276   1_455  A
O244        C252   1.273       .  A
O245        C254   1.273       .  A
O246        C255   1.269       .  A
O247        C254   1.275       .  A
O248        C255   1.271       .  A
O249        C256   1.270       .  A
O250        C256   1.272       .  A
C251        C361   1.470       .  S
C254        C301   1.471       .  S
C255        C261   1.504       .  S
C257        C258   1.409       .  A
C257        C262   1.406       .  A
C257       Br264   1.933       .  S
C258        C259   1.410       .  A
C259        C260   1.412       .  A
C259       Br266   1.936       .  S
C260        C261   1.426       .  A
C260       Br265   1.936       .  S
C261        C262   1.425       .  A
C262       Br263   1.941       .  S
C267        C272   1.410       .  A
C267        C764   1.411       .  A
C267       Br274   1.937       .  S
C268        C269   1.410   1_556  A
C268        C763   1.411       .  A
C269        C270   1.409       .  A
C269       Br276   1.932       .  S
C270        C271   1.424   1_554  A
C270       Br275   1.939       .  S
C271        C768   1.424       .  A
C272        C767   1.424       .  A
C272       Br273   1.937       .  S
C277        C278   1.424       .  A
C277        C282   1.412       .  A
C277       Br284   1.935       .  S
C278        C279   1.426       .  A
C279        C280   1.408       .  A
C279       Br286   1.937       .  S
C280        C281   1.406       .  A
C280       Br285   1.937       .  S
C281        C282   1.409       .  A
C282       Br283   1.933       .  S
C287        C288   1.406       .  A
C287        C292   1.408       .  A
C287       Br294   1.931       .  S
C288        C785   1.408   1_554  A
C289        C290   1.409       .  A
C289        C784   1.408       .  A
C289       Br296   1.932       .  S
C290        C787   1.417       .  A
C290       Br295   1.931       .  S
C291        C292   1.418       .  A
C291        C786   1.417   1_554  A
C292       Br293   1.933       .  S
C297        C298   1.412       .  A
C297        C302   1.406       .  A
C297       Br304   1.931       .  S
C298        C299   1.412       .  A
C299        C300   1.408       .  A
C299       Br306   1.928       .  S
C300        C301   1.407       .  A
C300       Br305   1.929       .  S
C301        C302   1.408       .  A
C302       Br303   1.931       .  S
C307        C308   1.408       .  A
C307        C312   1.407       .  A
C307       Br314   1.931       .  S
C308        C309   1.407       .  A
C308       C1132   1.476       .  S
C309        C310   1.408       .  A
C309       Br316   1.931       .  S
C310        C311   1.415       .  A
C310       Br315   1.932       .  S
C311        C312   1.414       .  A
C312       Br313   1.933       .  S
C317        C318   1.410       .  A
C317        C322   1.405       .  A
C317       Br324   1.926       .  S
C318        C815   1.408       .  A
C319        C320   1.409       .  A
C319        C814   1.408       .  A
C319       Br326   1.929       .  S
C320        C817   1.413       .  A
C320       Br325   1.931       .  S
C321        C322   1.408       .  A
C321        C816   1.413       .  A
C322       Br323   1.931       .  S
C327        C332   1.404       .  A
C327        C824   1.411       .  A
C327       Br334   1.924       .  S
C328        C329   1.412       .  A
C328        C823   1.411       .  A
C328       C1123   1.480       .  S
C329        C330   1.406       .  A
C329      Br1328   1.932       .  S
C330        C331   1.409       .  A
C330       Br335   1.931       .  S
C331        C828   1.407       .  A
C331        C661   1.469       .  S
C332        C827   1.407       .  A
C332       Br333   1.933       .  S
Br336      C1321   1.932       .  S
C337        C338   1.407       .  A
C337        C342   1.407       .  A
C337       Br344   1.927       .  S
C338        C339   1.409       .  A
C339        C340   1.406       .  A
C339       Br346   1.927       .  S
C340        C341   1.410       .  A
C340       Br345   1.931       .  S
C341        C342   1.411       .  A
C342       Br343   1.931       .  S
C347        C352   1.409       .  A
C347        C844   1.411       .  A
C347       Br354   1.930       .  S
C348        C349   1.409   1_556  A
C348        C843   1.411       .  A
C349        C350   1.406       .  A
C349       Br356   1.930       .  S
C350        C351   1.409   1_554  A
C350       Br355   1.926       .  S
C351        C848   1.408       .  A
C352        C847   1.408       .  A
C352       Br353   1.928       .  S
C357        C358   1.409       .  A
C357        C362   1.405       .  A
C357       Br364   1.929       .  S
C358        C359   1.411       .  A
C359        C360   1.407       .  A
C359       Br366   1.930       .  S
C360        C361   1.408       .  A
C360       Br365   1.929       .  S
C361        C362   1.409       .  A
C362       Br363   1.932       .  S
C367        C368   1.408       .  A
C367        C372   1.406       .  A
C367       Br374   1.930       .  S
C368        C369   1.407       .  A
C369        C370   1.408       .  A
C369       Br376   1.931       .  S
C370        C371   1.415       .  A
C370       Br375   1.933       .  S
C371        C372   1.414       .  A
C372       Br373   1.934       .  S
C377        C378   1.408   1_554  A
C377        C382   1.404       .  A
C377       Br384   1.930       .  S
C378        C875   1.406       .  A
C379        C380   1.406       .  A
C379        C874   1.406       .  A
C379       Br386   1.929       .  S
C380        C877   1.412       .  A
C380       Br385   1.931       .  S
C381        C382   1.410   1_556  A
C381        C876   1.412       .  A
C382       Br383   1.932       .  S
C387        C392   1.410       .  A
C387        C884   1.411       .  A
C387       Br394   1.937       .  S
C388        C389   1.410   1_556  A
C388        C883   1.411       .  A
C389        C390   1.406       .  A
C389       Br396   1.935       .  S
C390        C391   1.424   1_554  A
C390       Br395   1.940       .  S
C391        C888   1.424       .  A
C392        C887   1.424       .  A
C392       Br393   1.937       .  S
C397        C398   1.416       .  A
C397        C402   1.409       .  A
C397       Br404   1.930       .  S
C398        C399   1.416       .  A
C399        C400   1.406       .  A
C399       Br406   1.933       .  S
C400        C401   1.405       .  A
C400       Br405   1.930       .  S
C401        C402   1.406       .  A
C402      Br1395   1.930       .  S
Br403      C1394   1.930       .  S
C407        C408   1.419       .  A
C407        C412   1.406       .  A
C407       Br414   1.934       .  S
C408        C409   1.419       .  A
C409        C410   1.411       .  A
C409       Br416   1.931       .  S
C410        C411   1.407       .  A
C410       Br415   1.929       .  S
C411        C412   1.406       .  A
C412       Br413   1.931       .  S
C417        C418   1.429       .  A
C417        C422   1.408       .  A
C417       Br424   1.942       .  S
C418        C915   1.423       .  A
C419        C420   1.411       .  A
C419        C914   1.423       .  A
C419      Br1418   1.936       .  S
C420        C917   1.409       .  A
C420      Br1417   1.928       .  S
C421        C422   1.406       .  A
C421        C916   1.409       .  A
C422       Br423   1.933       .  S
Br425      C1412   1.928       .  S
Br426      C1411   1.936       .  S
C427        C432   1.409       .  A
C427        C924   1.418       .  A
C427       Br434   1.931       .  S
C428        C429   1.419       .  A
C428        C923   1.418   1_554  A
C429        C430   1.405       .  A
C429       Br436   1.931       .  S
C430        C431   1.403       .  A
C430       Br435   1.932       .  S
C431        C928   1.407   1_554  A
C432        C927   1.407       .  A
C432       Br433   1.931       .  S
C437        C438   1.414       .  A
C437        C442   1.407       .  A
C437       Br444   1.925       .  S
C438        C439   1.415       .  A
C439        C440   1.406       .  A
C439       Br446   1.920       .  S
C440        C441   1.403       .  A
C440       Br445   1.932       .  S
C441        C442   1.406       .  A
C442       Br443   1.931       .  S
C447        C448   1.419       .  A
C447        C452   1.410       .  A
C447       Br454   1.933       .  S
C448        C449   1.421       .  A
C449        C450   1.407       .  A
C449       Br456   1.932       .  S
C450        C451   1.405       .  A
C450       Br455   1.933       .  S
C451        C452   1.407       .  A
C452       Br453   1.929       .  S
C457        C458   1.405       .  A
C457        C462   1.404       .  A
C457       Br464   1.924       .  S
C458        C459   1.409       .  A
C459        C460   1.411       .  A
C459       Br466   1.934       .  S
C460        C461   1.425       .  A
C460       Br465   1.936       .  S
C461        C462   1.423       .  A
C462       Br463   1.941       .  S
C467        C472   1.407       .  A
C467        C964   1.422       .  A
C467       Br474   1.935       .  S
C468        C469   1.422   1_556  A
C468        C963   1.422       .  A
C469        C470   1.411       .  A
C469       Br476   1.935       .  S
C470        C471   1.407       .  A
C470       Br475   1.931       .  S
C471        C968   1.406   1_554  A
C472        C967   1.406       .  A
C472       Br473   1.933       .  S
C477        C478   1.419   1_554  A
C477        C482   1.410       .  A
C477       Br484   1.929       .  S
C478        C975   1.416       .  A
C479        C480   1.405       .  A
C479        C974   1.416       .  A
C479       Br486   1.932       .  S
C480        C977   1.405       .  A
C480       Br485   1.929       .  S
C481        C482   1.405       .  A
C481        C976   1.405   1_554  A
C482       Br483   1.928       .  S
C487        C488   1.409       .  A
C487        C492   1.408       .  A
C487       Br494   1.927       .  S
C488        C985   1.409   1_554  A
C489        C490   1.406       .  A
C489        C984   1.409       .  A
C489       Br496   1.927       .  S
C490        C987   1.412       .  A
C490       Br495   1.933       .  S
C491        C492   1.412       .  A
C491        C986   1.412   1_554  A
C492       Br493   1.932       .  S
C497        C498   1.404       .  A
C497        C502   1.406       .  A
C497        C967   1.482       .  S
C498        C499   1.403       .  A
C498        H503   1.084       .  S
C499        C500   1.401       .  A
C499        C984   1.480       .  S
C500        C501   1.401       .  A
C500        H504   1.085       .  S
C501        C502   1.401       .  A
C501        C977   1.478       .  S
C502        H505   1.084       .  S
C506        C507   1.408       .  A
C506        C511   1.408       .  A
C506        C934   1.489       .  S
C507        C508   1.403       .  A
C507        H512   1.084       .  S
C508        C509   1.399       .  A
C508        C947   1.480       .  S
C509        C510   1.399       .  A
C509        H513   1.085       .  S
C510        C511   1.407       .  A
C510        C954   1.486       .  S
C511        H514   1.084       .  S
Zn515       O520   1.973       .  S
Zn515       O524   1.996       .  S
Zn515       O531   2.002       .  S
Zn516       O521   2.037       .  S
Zn516       O523   2.047       .  S
Zn516       O527   2.024       .  S
Zn516       O519   1.964       .  S
Zn517       O522   2.020       .  S
Zn517       O525   2.013       .  S
Zn517       O528   1.991       .  S
Zn517       O519   1.946       .  S
Zn518       O526   2.036       .  S
Zn518       O529   2.020       .  S
Zn518       O530   2.040       .  S
O520        C532   1.265   1_556  A
O521        C533   1.275       .  A
O522        C534   1.272       .  A
O525        C533   1.272       .  A
O527        C536   1.276       .  A
O528        C535   1.271       .  A
O530        C537   1.275       .  A
O531        C537   1.271       .  A
C532        C914   1.504       .  S
C533        C559   1.463       .  S
C534        C987   1.477       .  S
C535        C924   1.489       .  S
C536       C1093   1.470   1_545  S
C537        C557   1.461       .  S
Zn538       O543   2.026       .  S
Zn538       O547   2.039       .  S
Zn538       O554   2.038       .  S
Zn538       O542   1.957       .  S
Zn539       O544   2.040       .  S
Zn539       O546   2.025       .  S
Zn539       O550   2.049       .  S
Zn539       O542   1.956       .  S
Zn540       O545   2.001       .  S
Zn540       O548   1.999       .  S
Zn540       O551   2.016       .  S
Zn540       O542   1.937       .  S
Zn541       O549   2.000       .  S
Zn541       O552   1.997       .  S
Zn541       O553   1.996       .  S
Zn541       O542   1.932       .  S
O543        C555   1.276       .  A
O544        C556   1.276       .  A
O545        C557   1.270       .  A
O546        C555   1.276       .  A
O547        C557   1.275       .  A
O548        C556   1.272       .  A
O549        C558   1.268       .  A
O550        C559   1.276       .  A
O551        C558   1.269       .  A
O552        C559   1.269       .  A
O553        C560   1.272       .  A
O554        C560   1.276       .  A
C555       C1612   1.471   1_545  S
C556        C904   1.493       .  S
C558        C957   1.499       .  S
C560        C894   1.485       .  S
C561        C562   1.400       .  A
C561        C566   1.402       .  A
C561        C874   1.472       .  S
C562        C563   1.398       .  A
C562        H567   1.084       .  S
C563        C564   1.401       .  A
C563        C927   1.475       .  S
C564        C565   1.404       .  A
C564        H568   1.084       .  S
C565        C566   1.405       .  A
C565        C884   1.488       .  S
C566        H569   1.083       .  S
C570        C571   1.406       .  A
C570        C575   1.402       .  A
C570        C854   1.478       .  S
C571        C572   1.403       .  A
C571        H576   1.084       .  S
C572        C573   1.402       .  A
C572        C907   1.481       .  S
C573        C574   1.401       .  A
C573        H577   1.085       .  S
C574        C575   1.400       .  A
C574        C864   1.476       .  S
C575        H578   1.084       .  S
Zn579       O584   2.007       .  S
Zn579       O588   2.013       .  S
Zn579       O595   2.021       .  S
Zn580       O585   2.020       .  S
Zn580       O587   2.030       .  S
Zn580       O591   2.039       .  S
Zn580       O583   1.961       .  S
Zn581       O586   2.024       .  S
Zn581       O589   2.024       .  S
Zn581       O592   2.027       .  S
Zn582       O590   2.007       .  S
Zn582       O593   1.997       .  S
Zn582       O594   2.001       .  S
Zn582       O583   1.944       .  S
O586        C598   1.273       .  A
O587        C596   1.275       .  A
O588        C598   1.271       .  A
O589        C597   1.276       .  A
O590        C599   1.273       .  A
O591        C600   1.274       .  A
O593        C600   1.269       .  A
O594        C601   1.269       .  A
C596        C974   1.489       .  S
C597       C1032   1.470   1_556  S
C598        C623   1.460       .  S
C599        C844   1.475       .  S
C600        C621   1.460       .  S
C601        C887   1.500       .  S
Zn602       O607   1.998       .  S
Zn602       O611   2.019       .  S
Zn602       O618   2.011       .  S
Zn602       O606   1.950       .  S
Zn603       O608   2.028       .  S
Zn603       O610   2.037       .  S
Zn603       O614   2.040       .  S
Zn603       O606   1.966       .  S
Zn604       O609   2.019       .  S
Zn604       O612   2.018       .  S
Zn604       O615   2.031       .  S
Zn604       O606   1.960       .  S
Zn605       O613   1.991       .  S
Zn605       O616   2.000       .  S
Zn605       O617   2.009       .  S
Zn605       O606   1.949       .  S
O607        C619   1.271       .  A
O608        C620   1.276       .  A
O609        C621   1.272       .  A
O610        C619   1.275       .  A
O611        C621   1.273       .  A
O612        C620   1.275       .  A
O613        C622   1.270       .  A
O614        C623   1.275       .  A
O615        C622   1.275       .  A
O616        C623   1.271       .  A
O617        C624   1.271       .  A
O618        C624   1.272       .  A
C619        C944   1.494       .  S
C620       C1547   1.471       .  S
C622        C837   1.475       .  S
C624        C867   1.480       .  S
C625        C626   1.406       .  A
C625        C630   1.409       .  A
C625        C917   1.489       .  S
C626        C627   1.404       .  A
C626       H1623   1.084   1_545  S
C627        C628   1.400       .  A
C627       C1816   1.480   1_545  S
C628        C629   1.398       .  A
C628        H632   1.085       .  S
C629        C630   1.403       .  A
C629        C814   1.478       .  S
C630        H633   1.084       .  S
H631       C1618   1.084       .  S
C634        C635   1.402       .  A
C634        C639   1.405       .  A
C634        C897   1.476       .  S
C635        C636   1.400       .  A
C635       H1632   1.084   1_545  S
C636        C637   1.400       .  A
C636       C1796   1.476   1_545  S
C637        C638   1.403       .  A
C637        H641   1.085       .  S
C638        C639   1.404       .  A
C638        C794   1.482       .  S
C639        H642   1.084       .  S
H640       C1627   1.084       .  S
Zn643       O648   2.035       .  S
Zn643       O652   2.033       .  S
Zn643       O659   2.013       .  S
Zn643       O647   1.964       .  S
Zn644       O649   1.990       .  S
Zn644       O651   1.999       .  S
Zn644       O655   1.995       .  S
Zn645       O650   2.013       .  S
Zn645       O653   2.017       .  S
Zn645       O656   1.997       .  S
Zn645       O647   1.951       .  S
Zn646       O654   2.041   1_655  S
Zn646       O657   2.043       .  S
Zn646       O658   2.033       .  S
O648        C660   1.274       .  A
O650        C662   1.272       .  A
O652        C662   1.275       .  A
O653        C661   1.273       .  A
O655        C664   1.270       .  A
O656        C663   1.271   1_655  A
O657        C664   1.276       .  A
O659        C665   1.273       .  A
C660        C964   1.497       .  S
C662        C685   1.462       .  S
C663        C787   1.488       .  S
C664        C687   1.460       .  S
C665        C727   1.471       .  S
Zn666       O671   1.992       .  S
Zn666       O675   2.000       .  S
Zn666       O682   2.012       .  S
Zn666       O670   1.953       .  S
Zn667       O672   2.012       .  S
Zn667       O674   2.023       .  S
Zn667       O678   2.012       .  S
Zn667       O670   1.959       .  S
Zn668       O673   2.048       .  S
Zn668       O676   2.039       .  S
Zn668       O679   2.047   1_655  S
Zn668       O670   1.966       .  S
Zn669       O677   1.994       .  S
Zn669       O680   2.023       .  S
Zn669       O681   2.014       .  S
Zn669       O670   1.950       .  S
O671        C683   1.270       .  A
O672        C684   1.274       .  A
O673        C685   1.277       .  A
O674        C683   1.273       .  A
O675        C685   1.271       .  A
O676        C684   1.277       .  A
O677        C686   1.270   1_655  A
O678        C687   1.271       .  A
O679        C686   1.276       .  A
O680        C687   1.273       .  A
O681        C688   1.272       .  A
O682        C688   1.271       .  A
C683        C937   1.467       .  S
C684        C749   1.472       .  S
C686        C774   1.503       .  S
C688        C807   1.480       .  S
C689        C690   1.403       .  A
C689        C694   1.404       .  A
C689        C847   1.479       .  S
C690        C691   1.401       .  A
C690        H695   1.084       .  S
C691        C692   1.401       .  A
C691        C784   1.479       .  S
C692       C1685   1.404       .  A
C692        H696   1.084       .  S
C693       C1684   1.404       .  A
C693       C1686   1.407       .  A
C693        C764   1.491   1_565  S
C694       C1685   1.407       .  A
C694       H1689   1.084       .  S
H697       C1686   1.084   1_545  S
C698        C699   1.403       .  A
C698        C703   1.403       .  A
C698        C834   1.477       .  S
C699        C700   1.403       .  A
C699        H704   1.084       .  S
C700        C701   1.403       .  A
C700        C777   1.484       .  S
C701       C1694   1.404       .  A
C701        H705   1.084       .  S
C702       C1693   1.404   1_545  A
C702       C1695   1.405   1_545  A
C702        C754   1.489       .  S
C703       C1694   1.405       .  A
C703       H1698   1.084       .  S
H706       C1695   1.084   1_545  S
Zn707       O712   2.025       .  S
Zn707       O716   2.013       .  S
Zn707       O723   2.012   1_455  S
Zn708       O713   1.996       .  S
Zn708       O715   2.012       .  S
Zn708       O719   1.998       .  S
Zn708       O711   1.942       .  S
Zn709       O714   2.019       .  S
Zn709       O717   2.020       .  S
Zn709       O720   2.017       .  S
Zn710       O718   2.029       .  S
Zn710       O721   2.025   1_655  S
Zn710       O722   2.022       .  S
Zn710       O711   1.956   1_655  S
O713        C725   1.272       .  A
O714        C726   1.272       .  A
O715        C724   1.270       .  A
O716        C726   1.272       .  A
O718        C727   1.277       .  A
O719        C728   1.270       .  A
O721        C728   1.272       .  A
O723        C729   1.275   1_556  A
C724        C767   1.502       .  S
C725        C877   1.471       .  S
C726        C748   1.459       .  S
C728        C752   1.457       .  S
C729        C817   1.476       .  S
Zn730       O735   2.022       .  S
Zn730       O739   2.028       .  S
Zn730       O746   2.024       .  S
Zn730       O734   1.959       .  S
Zn731       O736   1.998       .  S
Zn731       O738   2.003       .  S
Zn731       O742   2.003       .  S
Zn731       O734   1.943       .  S
Zn732       O737   2.026       .  S
Zn732       O740   2.034   1_655  S
Zn732       O743   2.027       .  S
Zn732       O734   1.956   1_655  S
Zn733       O741   2.008   1_455  S
Zn733       O744   2.026       .  S
Zn733       O745   2.000       .  S
Zn733       O734   1.947       .  S
O735        C747   1.274       .  A
O736        C748   1.270       .  A
O737        C749   1.277       .  A
O738        C747   1.272       .  A
O739        C749   1.276   1_455  A
O740        C748   1.273       .  A
O741        C750   1.273       .  A
O742        C751   1.269       .  A
O743        C750   1.275       .  A
O744        C751   1.271       .  A
O745        C752   1.270       .  A
O746        C752   1.272       .  A
C747        C857   1.470       .  S
C750        C797   1.471       .  S
C751        C757   1.504       .  S
C753        C754   1.409       .  A
C753        C758   1.406       .  A
C753       Br760   1.933       .  S
C754        C755   1.410       .  A
C755        C756   1.412       .  A
C755       Br762   1.936       .  S
C756        C757   1.426       .  A
C756       Br761   1.936       .  S
C757        C758   1.425       .  A
C758       Br759   1.941       .  S
C763        C768   1.410       .  A
C763       Br770   1.937       .  S
C764        C765   1.410       .  A
C765        C766   1.409       .  A
C765       Br772   1.932       .  S
C766        C767   1.424       .  A
C766       Br771   1.939       .  S
C768       Br769   1.937       .  S
C773        C774   1.424       .  A
C773        C778   1.412       .  A
C773       Br780   1.935       .  S
C774        C775   1.426       .  A
C775        C776   1.408       .  A
C775       Br782   1.937       .  S
C776        C777   1.406       .  A
C776       Br781   1.937       .  S
C777        C778   1.409       .  A
C778       Br779   1.933       .  S
C783        C784   1.406       .  A
C783        C788   1.408       .  A
C783       Br790   1.931       .  S
C785        C786   1.409       .  A
C785       Br792   1.932       .  S
C786       Br791   1.931       .  S
C787        C788   1.418       .  A
C788       Br789   1.933       .  S
C793        C794   1.412       .  A
C793        C798   1.406       .  A
C793       Br800   1.931       .  S
C794        C795   1.412       .  A
C795        C796   1.408       .  A
C795       Br802   1.928       .  S
C796        C797   1.407       .  A
C796       Br801   1.929       .  S
C797        C798   1.408       .  A
C798       Br799   1.931       .  S
C803        C804   1.408       .  A
C803        C808   1.407       .  A
C803       Br810   1.931       .  S
C804        C805   1.407       .  A
C804       C1628   1.476       .  S
C805        C806   1.408       .  A
C805       Br812   1.931       .  S
C806        C807   1.415       .  A
C806       Br811   1.932       .  S
C807        C808   1.414       .  A
C808       Br809   1.933       .  S
C813        C814   1.410   1_556  A
C813        C818   1.405       .  A
C813       Br820   1.926       .  S
C815        C816   1.409       .  A
C815       Br822   1.929       .  S
C816       Br821   1.931       .  S
C817        C818   1.408   1_554  A
C818       Br819   1.931       .  S
C823        C828   1.404       .  A
C823       Br830   1.924       .  S
C824        C825   1.412   1_554  A
C824       C1619   1.480       .  S
C825        C826   1.406       .  A
C825      Br1824   1.932       .  S
C826        C827   1.409   1_556  A
C826       Br831   1.931       .  S
C828       Br829   1.933       .  S
Br832      C1817   1.932       .  S
C833        C834   1.407       .  A
C833        C838   1.407       .  A
C833       Br840   1.927       .  S
C834        C835   1.409       .  A
C835        C836   1.406       .  A
C835       Br842   1.927       .  S
C836        C837   1.410       .  A
C836       Br841   1.931       .  S
C837        C838   1.411       .  A
C838       Br839   1.931       .  S
C843        C848   1.409       .  A
C843       Br850   1.930       .  S
C844        C845   1.409       .  A
C845        C846   1.406       .  A
C845       Br852   1.930       .  S
C846        C847   1.409       .  A
C846       Br851   1.926       .  S
C848       Br849   1.928       .  S
C853        C854   1.409       .  A
C853        C858   1.405       .  A
C853       Br860   1.929       .  S
C854        C855   1.411       .  A
C855        C856   1.407       .  A
C855       Br862   1.930       .  S
C856        C857   1.408       .  A
C856       Br861   1.929       .  S
C857        C858   1.409       .  A
C858       Br859   1.932       .  S
C863        C864   1.408       .  A
C863        C868   1.406       .  A
C863       Br870   1.930       .  S
C864        C865   1.407       .  A
C865        C866   1.408       .  A
C865       Br872   1.931       .  S
C866        C867   1.415       .  A
C866       Br871   1.933       .  S
C867        C868   1.414       .  A
C868       Br869   1.934       .  S
C873        C874   1.408       .  A
C873        C878   1.404       .  A
C873       Br880   1.930       .  S
C875        C876   1.406       .  A
C875       Br882   1.929       .  S
C876       Br881   1.931       .  S
C877        C878   1.410       .  A
C878       Br879   1.932       .  S
C883        C888   1.410       .  A
C883       Br890   1.937       .  S
C884        C885   1.410       .  A
C885        C886   1.406       .  A
C885       Br892   1.935       .  S
C886        C887   1.424       .  A
C886       Br891   1.940       .  S
C888       Br889   1.937       .  S
C893        C894   1.416       .  A
C893        C898   1.409       .  A
C893       Br900   1.930       .  S
C894        C895   1.416       .  A
C895        C896   1.406       .  A
C895       Br902   1.933       .  S
C896        C897   1.405       .  A
C896       Br901   1.930       .  S
C897        C898   1.406       .  A
C898      Br1891   1.930       .  S
Br899      C1890   1.930       .  S
C903        C904   1.419       .  A
C903        C908   1.406       .  A
C903       Br910   1.934       .  S
C904        C905   1.419       .  A
C905        C906   1.411       .  A
C905       Br912   1.931       .  S
C906        C907   1.407       .  A
C906       Br911   1.929       .  S
C907        C908   1.406       .  A
C908       Br909   1.931       .  S
C913        C914   1.429   1_556  A
C913        C918   1.408       .  A
C913       Br920   1.942       .  S
C915        C916   1.411       .  A
C915      Br1914   1.936       .  S
C916      Br1913   1.928       .  S
C917        C918   1.406   1_554  A
C918       Br919   1.933       .  S
Br921      C1908   1.928       .  S
Br922      C1907   1.936       .  S
C923        C928   1.409       .  A
C923       Br930   1.931       .  S
C924        C925   1.419       .  A
C925        C926   1.405       .  A
C925       Br932   1.931       .  S
C926        C927   1.403       .  A
C926       Br931   1.932       .  S
C928       Br929   1.931       .  S
C933        C934   1.414       .  A
C933        C938   1.407       .  A
C933       Br940   1.925       .  S
C934        C935   1.415       .  A
C935        C936   1.406       .  A
C935       Br942   1.920       .  S
C936        C937   1.403       .  A
C936       Br941   1.932       .  S
C937        C938   1.406       .  A
C938       Br939   1.931       .  S
C943        C944   1.419       .  A
C943        C948   1.410       .  A
C943       Br950   1.933       .  S
C944        C945   1.421       .  A
C945        C946   1.407       .  A
C945       Br952   1.932       .  S
C946        C947   1.405       .  A
C946       Br951   1.933       .  S
C947        C948   1.407       .  A
C948       Br949   1.929       .  S
C953        C954   1.405       .  A
C953        C958   1.404       .  A
C953       Br960   1.924       .  S
C954        C955   1.409       .  A
C955        C956   1.411       .  A
C955       Br962   1.934       .  S
C956        C957   1.425       .  A
C956       Br961   1.936       .  S
C957        C958   1.423       .  A
C958       Br959   1.941       .  S
C963        C968   1.407       .  A
C963       Br970   1.935       .  S
C964        C965   1.422       .  A
C965        C966   1.411       .  A
C965       Br972   1.935       .  S
C966        C967   1.407       .  A
C966       Br971   1.931       .  S
C968       Br969   1.933       .  S
C973        C974   1.419       .  A
C973        C978   1.410       .  A
C973       Br980   1.929       .  S
C975        C976   1.405       .  A
C975       Br982   1.932       .  S
C976       Br981   1.929       .  S
C977        C978   1.405       .  A
C978       Br979   1.928       .  S
C983        C984   1.409       .  A
C983        C988   1.408       .  A
C983       Br990   1.927       .  S
C985        C986   1.406       .  A
C985       Br992   1.927       .  S
C986       Br991   1.933       .  S
C987        C988   1.412       .  A
C988       Br989   1.932       .  S
C993        C994   1.404       .  A
C993        C998   1.406       .  A
C993       C1463   1.482       .  S
C994        C995   1.403       .  A
C994        H999   1.084       .  S
C995        C996   1.401       .  A
C995       C1480   1.480       .  S
C996        C997   1.401       .  A
C996       H1000   1.085       .  S
C997        C998   1.401       .  A
C997       C1473   1.478       .  S
C998       H1001   1.084       .  S
C1002      C1003   1.408       .  A
C1002      C1007   1.408       .  A
C1002      C1430   1.489       .  S
C1003      C1004   1.403       .  A
C1003      H1008   1.084       .  S
C1004      C1005   1.399       .  A
C1004      C1443   1.480       .  S
C1005      C1006   1.399       .  A
C1005      H1009   1.085       .  S
C1006      C1007   1.407       .  A
C1006      C1450   1.486       .  S
C1007      H1010   1.084       .  S
Zn1011     O1016   1.973       .  S
Zn1011     O1020   1.996       .  S
Zn1011     O1027   2.002       .  S
Zn1011     O1511   1.936       .  S
Zn1012     O1017   2.037       .  S
Zn1012     O1019   2.047       .  S
Zn1012     O1023   2.024       .  S
Zn1012     O1015   1.964       .  S
Zn1013     O1018   2.020       .  S
Zn1013     O1021   2.013       .  S
Zn1013     O1024   1.991       .  S
Zn1013     O1015   1.946       .  S
Zn1014     O1022   2.036       .  S
Zn1014     O1025   2.020       .  S
Zn1014     O1026   2.040       .  S
Zn1014     O1511   1.963       .  S
O1015     Zn1507   1.936   1_554  S
O1015     Zn1510   1.963   1_554  S
O1016      C1028   1.265       .  A
O1017      C1029   1.275       .  A
O1018      C1030   1.272       .  A
O1019      C1524   1.275       .  A
O1020      C1526   1.270       .  A
O1021      C1029   1.272       .  A
O1022      C1527   1.275       .  A
O1023      C1032   1.276       .  A
O1024      C1031   1.271       .  A
O1025      C1528   1.275       .  A
O1026      C1033   1.275       .  A
O1027      C1033   1.271       .  A
C1028      C1410   1.504       .  S
C1028      O1515   1.275       .  A
C1029      C1055   1.463       .  S
C1030      C1483   1.477       .  S
C1030      O1516   1.270   1_554  A
C1031      C1420   1.489       .  S
C1031      O1518   1.275   1_554  A
C1032      O1521   1.275   1_554  A
C1033      C1053   1.461       .  S
Zn1034     O1039   2.026       .  S
Zn1034     O1043   2.039       .  S
Zn1034     O1050   2.038       .  S
Zn1034     O1038   1.957       .  S
Zn1035     O1040   2.040       .  S
Zn1035     O1042   2.025       .  S
Zn1035     O1046   2.049       .  S
Zn1035     O1038   1.956       .  S
Zn1036     O1041   2.001       .  S
Zn1036     O1044   1.999       .  S
Zn1036     O1047   2.016       .  S
Zn1036     O1038   1.937       .  S
Zn1037     O1045   2.000       .  S
Zn1037     O1048   1.997       .  S
Zn1037     O1049   1.996       .  S
Zn1037     O1038   1.932       .  S
O1039      C1051   1.276       .  A
O1040      C1052   1.276       .  A
O1041      C1053   1.270       .  A
O1042      C1051   1.276       .  A
O1043      C1053   1.275       .  A
O1044      C1052   1.272       .  A
O1045      C1054   1.268       .  A
O1046      C1055   1.276       .  A
O1047      C1054   1.269       .  A
O1048      C1055   1.269       .  A
O1049      C1056   1.272       .  A
O1050      C1056   1.276       .  A
C1052      C1400   1.493       .  S
C1054      C1453   1.499       .  S
C1056      C1390   1.485       .  S
C1057      C1058   1.400       .  A
C1057      C1062   1.402       .  A
C1057      C1370   1.472       .  S
C1058      C1059   1.398       .  A
C1058      H1063   1.084       .  S
C1059      C1060   1.401       .  A
C1059      C1423   1.475   1_556  S
C1060      C1061   1.404       .  A
C1060      H1064   1.084   1_556  S
C1061      C1062   1.405       .  A
C1061      C1380   1.488       .  S
C1062      H1065   1.083       .  S
C1066      C1067   1.406       .  A
C1066      C1071   1.402       .  A
C1066      C1350   1.478       .  S
C1067      C1068   1.403       .  A
C1067      H1072   1.084       .  S
C1068      C1069   1.402       .  A
C1068      C1403   1.481       .  S
C1069      C1070   1.401       .  A
C1069      H1073   1.085       .  S
C1070      C1071   1.400       .  A
C1070      C1360   1.476       .  S
C1071      H1074   1.084       .  S
Zn1075     O1080   2.007       .  S
Zn1075     O1084   2.013       .  S
Zn1075     O1091   2.021       .  S
Zn1075     O1575   1.946       .  S
Zn1076     O1081   2.020       .  S
Zn1076     O1083   2.030       .  S
Zn1076     O1087   2.039       .  S
Zn1076     O1079   1.961   1_554  S
Zn1077     O1082   2.024       .  S
Zn1077     O1085   2.024       .  S
Zn1077     O1088   2.027       .  S
Zn1077     O1575   1.957       .  S
Zn1078     O1086   2.007       .  S
Zn1078     O1089   1.997       .  S
Zn1078     O1090   2.001       .  S
Zn1078     O1079   1.944   1_554  S
O1079     Zn1571   1.946       .  S
O1079     Zn1573   1.957       .  S
O1080      C1588   1.274       .  A
O1081      C1589   1.275   1_554  A
O1082      C1094   1.273       .  A
O1083      C1092   1.275   1_554  A
O1084      C1094   1.271       .  A
O1085      C1093   1.276       .  A
O1086      C1095   1.273   1_554  A
O1087      C1096   1.274       .  A
O1088      C1591   1.274       .  A
O1089      C1096   1.269       .  A
O1090      C1097   1.269   1_554  A
O1091      C1593   1.271       .  A
C1092      C1470   1.489       .  S
C1092      O1576   1.274       .  A
C1093      O1577   1.275       .  A
C1094      C1119   1.460       .  S
C1095      C1340   1.475       .  S
C1095      O1584   1.274       .  A
C1096      C1117   1.460       .  S
C1097      C1383   1.500       .  S
C1097      O1587   1.271       .  A
Zn1098     O1103   1.998       .  S
Zn1098     O1107   2.019       .  S
Zn1098     O1114   2.011       .  S
Zn1098     O1102   1.950       .  S
Zn1099     O1104   2.028       .  S
Zn1099     O1106   2.037       .  S
Zn1099     O1110   2.040       .  S
Zn1099     O1102   1.966       .  S
Zn1100     O1105   2.019       .  S
Zn1100     O1108   2.018       .  S
Zn1100     O1111   2.031       .  S
Zn1100     O1102   1.960       .  S
Zn1101     O1109   1.991       .  S
Zn1101     O1112   2.000       .  S
Zn1101     O1113   2.009       .  S
Zn1101     O1102   1.949       .  S
O1103      C1115   1.271       .  A
O1104      C1116   1.276       .  A
O1105      C1117   1.272       .  A
O1106      C1115   1.275       .  A
O1107      C1117   1.273       .  A
O1108      C1116   1.275       .  A
O1109      C1118   1.270       .  A
O1110      C1119   1.275       .  A
O1111      C1118   1.275       .  A
O1112      C1119   1.271       .  A
O1113      C1120   1.271       .  A
O1114      C1120   1.272       .  A
C1115      C1440   1.494       .  S
C1118      C1333   1.475       .  S
C1120      C1363   1.480       .  S
C1121      C1122   1.406       .  A
C1121      C1126   1.409       .  A
C1121      C1413   1.489       .  S
C1122      C1123   1.404       .  A
C1123      C1124   1.400       .  A
C1124      C1125   1.398       .  A
C1124      H1128   1.085       .  S
C1125      C1126   1.403       .  A
C1125      C1310   1.478       .  S
C1126      H1129   1.084       .  S
C1130      C1131   1.402       .  A
C1130      C1135   1.405       .  A
C1130      C1393   1.476       .  S
C1131      C1132   1.400       .  A
C1132      C1133   1.400       .  A
C1133      C1134   1.403       .  A
C1133      H1137   1.085       .  S
C1134      C1135   1.404       .  A
C1134      C1290   1.482       .  S
C1135      H1138   1.084       .  S
Zn1139     O1144   2.035       .  S
Zn1139     O1148   2.033       .  S
Zn1139     O1155   2.013       .  S
Zn1139     O1143   1.964       .  S
Zn1140     O1145   1.990       .  S
Zn1140     O1147   1.999       .  S
Zn1140     O1151   1.995       .  S
Zn1140     O1639   1.949       .  S
Zn1141     O1146   2.013       .  S
Zn1141     O1149   2.017       .  S
Zn1141     O1152   1.998       .  S
Zn1141     O1143   1.951       .  S
Zn1142     O1150   2.041   1_655  S
Zn1142     O1153   2.043       .  S
Zn1142     O1154   2.033       .  S
Zn1142     O1639   1.966       .  S
O1143     Zn1636   1.949   1_554  S
O1143     Zn1638   1.966   1_554  S
O1144      C1156   1.274   1_554  A
O1145      C1653   1.268       .  A
O1146      C1158   1.272       .  A
O1147      C1652   1.270       .  A
O1148      C1158   1.275       .  A
O1149      C1157   1.273       .  A
O1150      C1655   1.276       .  A
O1151      C1160   1.270       .  A
O1152      C1159   1.271   1_655  A
O1153      C1160   1.276       .  A
O1154      C1657   1.277       .  A
O1155      C1161   1.273   1_554  A
C1156      C1460   1.497       .  S
C1156      O1643   1.270       .  A
C1157      C1819   1.469       .  S
C1157      O1641   1.268   1_554  A
C1158      C1181   1.462       .  S
C1159      C1283   1.488       .  S
C1159      O1646   1.276   1_554  A
C1160      C1183   1.460       .  S
C1161      C1223   1.471       .  S
C1161      O1650   1.277       .  A
Zn1162     O1167   1.992       .  S
Zn1162     O1171   2.000       .  S
Zn1162     O1178   2.012       .  S
Zn1162     O1166   1.953       .  S
Zn1163     O1168   2.012       .  S
Zn1163     O1170   2.023       .  S
Zn1163     O1174   2.011       .  S
Zn1163     O1166   1.959       .  S
Zn1164     O1169   2.048       .  S
Zn1164     O1172   2.039       .  S
Zn1164     O1175   2.047   1_655  S
Zn1164     O1166   1.966       .  S
Zn1165     O1173   1.994       .  S
Zn1165     O1176   2.023       .  S
Zn1165     O1177   2.014       .  S
Zn1165     O1166   1.950       .  S
O1167      C1179   1.270       .  A
O1168      C1180   1.274       .  A
O1169      C1181   1.277       .  A
O1170      C1179   1.273       .  A
O1171      C1181   1.271       .  A
O1172      C1180   1.277       .  A
O1173      C1182   1.270   1_655  A
O1174      C1183   1.271       .  A
O1175      C1182   1.276       .  A
O1176      C1183   1.273       .  A
O1177      C1184   1.272       .  A
O1178      C1184   1.271       .  A
C1179      C1433   1.467       .  S
C1180      C1245   1.472       .  S
C1182      C1270   1.503       .  S
C1184      C1303   1.480       .  S
C1185      C1186   1.403       .  A
C1185      C1190   1.404       .  A
C1185      C1343   1.479       .  S
C1186      C1187   1.401   1_556  A
C1186      H1191   1.084       .  S
C1187      C1188   1.401       .  A
C1187      C1280   1.479       .  S
C1188      H1192   1.084       .  S
C1189      C1260   1.491       .  S
C1194      C1195   1.403       .  A
C1194      C1199   1.403       .  A
C1194      C1330   1.477       .  S
C1195      C1196   1.403       .  A
C1195      H1200   1.084       .  S
C1196      C1197   1.403       .  A
C1196      C1273   1.484       .  S
C1197      H1201   1.084       .  S
C1198      C1250   1.489       .  S
Zn1203     O1208   2.025       .  S
Zn1203     O1212   2.013       .  S
Zn1203     O1219   2.012   1_455  S
Zn1203     O1703   1.945       .  S
Zn1204     O1209   1.996       .  S
Zn1204     O1211   2.012       .  S
Zn1204     O1215   1.998       .  S
Zn1204     O1207   1.942   1_554  S
Zn1205     O1210   2.019       .  S
Zn1205     O1213   2.020       .  S
Zn1205     O1216   2.017       .  S
Zn1205     O1703   1.955       .  S
Zn1206     O1214   2.029       .  S
Zn1206     O1217   2.025   1_655  S
Zn1206     O1218   2.022       .  S
Zn1206     O1207   1.956   1_654  S
O1207     Zn1699   1.945       .  S
O1207     Zn1701   1.955       .  S
O1208      C1716   1.271       .  A
O1209      C1221   1.272   1_554  A
O1210      C1222   1.272       .  A
O1211      C1220   1.270   1_554  A
O1212      C1222   1.272       .  A
O1213      C1717   1.274       .  A
O1214      C1223   1.277   1_554  A
O1215      C1224   1.270       .  A
O1216      C1719   1.274   1_455  A
O1217      C1224   1.272       .  A
O1218      C1721   1.275       .  A
O1219      C1225   1.275       .  A
C1220      C1263   1.502       .  S
C1220      O1704   1.271       .  A
C1221      C1373   1.471       .  S
C1221      O1709   1.274       .  A
C1222      C1244   1.459       .  S
C1223      O1712   1.274   1_655  A
C1224      C1248   1.457       .  S
C1225      C1313   1.476       .  S
C1225      O1714   1.275       .  A
Zn1226     O1231   2.022       .  S
Zn1226     O1235   2.028       .  S
Zn1226     O1242   2.024       .  S
Zn1226     O1230   1.959       .  S
Zn1227     O1232   1.998       .  S
Zn1227     O1234   2.003       .  S
Zn1227     O1238   2.003       .  S
Zn1227     O1230   1.943       .  S
Zn1228     O1233   2.027       .  S
Zn1228     O1236   2.034   1_655  S
Zn1228     O1239   2.027       .  S
Zn1228     O1230   1.956   1_655  S
Zn1229     O1237   2.008   1_455  S
Zn1229     O1240   2.026       .  S
Zn1229     O1241   2.001       .  S
Zn1229     O1230   1.947       .  S
O1231      C1243   1.274       .  A
O1232      C1244   1.270       .  A
O1233      C1245   1.277       .  A
O1234      C1243   1.272       .  A
O1235      C1245   1.276   1_455  A
O1236      C1244   1.273       .  A
O1237      C1246   1.273       .  A
O1238      C1247   1.269       .  A
O1239      C1246   1.275       .  A
O1240      C1247   1.271       .  A
O1241      C1248   1.270       .  A
O1242      C1248   1.272       .  A
C1243      C1353   1.470       .  S
C1246      C1293   1.471       .  S
C1247      C1253   1.504       .  S
C1249      C1250   1.409       .  A
C1249      C1254   1.406       .  A
C1249     Br1256   1.933       .  S
C1250      C1251   1.410       .  A
C1251      C1252   1.412       .  A
C1251     Br1258   1.936       .  S
C1252      C1253   1.426       .  A
C1252     Br1257   1.936       .  S
C1253      C1254   1.425       .  A
C1254     Br1255   1.941       .  S
C1259      C1756   1.411       .  A
C1259      C1264   1.410       .  A
C1259     Br1266   1.937       .  S
C1260      C1755   1.411       .  A
C1260      C1261   1.410   1_556  A
C1261      C1262   1.409       .  A
C1261     Br1268   1.932       .  S
C1262      C1263   1.424   1_554  A
C1262     Br1267   1.939       .  S
C1263      C1760   1.424       .  A
C1264      C1759   1.424       .  A
C1264     Br1265   1.937       .  S
C1269      C1270   1.424       .  A
C1269      C1274   1.412       .  A
C1269     Br1276   1.935       .  S
C1270      C1271   1.426       .  A
C1271      C1272   1.408       .  A
C1271     Br1278   1.937       .  S
C1272      C1273   1.406       .  A
C1272     Br1277   1.937       .  S
C1273      C1274   1.409       .  A
C1274     Br1275   1.933       .  S
C1279      C1280   1.406       .  A
C1279      C1284   1.408       .  A
C1279     Br1286   1.931       .  S
C1280      C1777   1.408   1_554  A
C1281      C1776   1.408       .  A
C1281      C1282   1.409       .  A
C1281     Br1288   1.932       .  S
C1282      C1779   1.417       .  A
C1282     Br1287   1.931       .  S
C1283      C1778   1.417   1_554  A
C1283      C1284   1.418       .  A
C1284     Br1285   1.933       .  S
C1289      C1290   1.412       .  A
C1289      C1294   1.406       .  A
C1289     Br1296   1.931       .  S
C1290      C1291   1.412       .  A
C1291      C1292   1.408       .  A
C1291     Br1298   1.928       .  S
C1292      C1293   1.407       .  A
C1292     Br1297   1.929       .  S
C1293      C1294   1.408       .  A
C1294     Br1295   1.931       .  S
C1299      C1300   1.408       .  A
C1299      C1304   1.407       .  A
C1299     Br1306   1.931       .  S
C1300      C1301   1.407       .  A
C1301      C1302   1.408       .  A
C1301     Br1308   1.931       .  S
C1302      C1303   1.415       .  A
C1302     Br1307   1.932       .  S
C1303      C1304   1.414       .  A
C1304     Br1305   1.933       .  S
C1309      C1310   1.410       .  A
C1309      C1314   1.405       .  A
C1309     Br1316   1.926       .  S
C1310      C1807   1.408       .  A
C1311      C1806   1.408       .  A
C1311      C1312   1.409       .  A
C1311     Br1318   1.929       .  S
C1312      C1809   1.413       .  A
C1312     Br1317   1.931       .  S
C1313      C1808   1.413       .  A
C1313      C1314   1.408       .  A
C1314     Br1315   1.931       .  S
C1319      C1816   1.411       .  A
C1319      C1324   1.404       .  A
C1319     Br1326   1.924       .  S
C1320      C1815   1.411       .  A
C1320      C1321   1.412       .  A
C1321      C1322   1.406       .  A
C1322      C1323   1.409       .  A
C1322     Br1327   1.931       .  S
C1323      C1820   1.407       .  A
C1323      C1653   1.469       .  S
C1324      C1819   1.407       .  A
C1324     Br1325   1.933       .  S
C1329      C1330   1.407       .  A
C1329      C1334   1.407       .  A
C1329     Br1336   1.927       .  S
C1330      C1331   1.409       .  A
C1331      C1332   1.406       .  A
C1331     Br1338   1.927       .  S
C1332      C1333   1.410       .  A
C1332     Br1337   1.931       .  S
C1333      C1334   1.411       .  A
C1334     Br1335   1.931       .  S
C1339      C1836   1.411       .  A
C1339      C1344   1.409       .  A
C1339     Br1346   1.930       .  S
C1340      C1835   1.411       .  A
C1340      C1341   1.409   1_556  A
C1341      C1342   1.406       .  A
C1341     Br1348   1.930       .  S
C1342      C1343   1.409   1_554  A
C1342     Br1347   1.926       .  S
C1343      C1840   1.408       .  A
C1344      C1839   1.408       .  A
C1344     Br1345   1.928       .  S
C1349      C1350   1.409       .  A
C1349      C1354   1.405       .  A
C1349     Br1356   1.929       .  S
C1350      C1351   1.411       .  A
C1351      C1352   1.407       .  A
C1351     Br1358   1.930       .  S
C1352      C1353   1.408       .  A
C1352     Br1357   1.929       .  S
C1353      C1354   1.409       .  A
C1354     Br1355   1.932       .  S
C1359      C1360   1.408       .  A
C1359      C1364   1.406       .  A
C1359     Br1366   1.930       .  S
C1360      C1361   1.407       .  A
C1361      C1362   1.408       .  A
C1361     Br1368   1.931       .  S
C1362      C1363   1.415       .  A
C1362     Br1367   1.933       .  S
C1363      C1364   1.414       .  A
C1364     Br1365   1.934       .  S
C1369      C1370   1.408   1_554  A
C1369      C1374   1.404       .  A
C1369     Br1376   1.930       .  S
C1370      C1867   1.406       .  A
C1371      C1866   1.406       .  A
C1371      C1372   1.406       .  A
C1371     Br1378   1.929       .  S
C1372      C1869   1.412       .  A
C1372     Br1377   1.931       .  S
C1373      C1868   1.412       .  A
C1373      C1374   1.410   1_556  A
C1374     Br1375   1.932       .  S
C1379      C1876   1.411       .  A
C1379      C1384   1.410       .  A
C1379     Br1386   1.937       .  S
C1380      C1875   1.411       .  A
C1380      C1381   1.410   1_556  A
C1381      C1382   1.406       .  A
C1381     Br1388   1.935       .  S
C1382      C1383   1.424   1_554  A
C1382     Br1387   1.940       .  S
C1383      C1880   1.424       .  A
C1384      C1879   1.424       .  A
C1384     Br1385   1.937       .  S
C1389      C1390   1.416       .  A
C1389      C1394   1.409       .  A
C1389     Br1396   1.930       .  S
C1390      C1391   1.416       .  A
C1391      C1392   1.406       .  A
C1391     Br1398   1.933       .  S
C1392      C1393   1.405       .  A
C1392     Br1397   1.930       .  S
C1393      C1394   1.406       .  A
C1399      C1400   1.419       .  A
C1399      C1404   1.406       .  A
C1399     Br1406   1.934       .  S
C1400      C1401   1.419       .  A
C1401      C1402   1.411       .  A
C1401     Br1408   1.931       .  S
C1402      C1403   1.407       .  A
C1402     Br1407   1.929       .  S
C1403      C1404   1.406       .  A
C1404     Br1405   1.931       .  S
C1409      C1410   1.429       .  A
C1409      C1414   1.408       .  A
C1409     Br1416   1.942       .  S
C1410      C1907   1.423       .  A
C1411      C1906   1.423       .  A
C1411      C1412   1.411       .  A
C1412      C1909   1.409       .  A
C1413      C1908   1.409       .  A
C1413      C1414   1.406       .  A
C1414     Br1415   1.933       .  S
C1419      C1916   1.418       .  A
C1419      C1424   1.409       .  A
C1419     Br1426   1.931       .  S
C1420      C1915   1.418   1_554  A
C1420      C1421   1.419       .  A
C1421      C1422   1.405       .  A
C1421     Br1428   1.931       .  S
C1422      C1423   1.403       .  A
C1422     Br1427   1.932       .  S
C1423      C1920   1.407   1_554  A
C1424      C1919   1.407       .  A
C1424     Br1425   1.931       .  S
C1429      C1430   1.414       .  A
C1429      C1434   1.407       .  A
C1429     Br1436   1.925       .  S
C1430      C1431   1.415       .  A
C1431      C1432   1.406       .  A
C1431     Br1438   1.920       .  S
C1432      C1433   1.403       .  A
C1432     Br1437   1.932       .  S
C1433      C1434   1.406       .  A
C1434     Br1435   1.931       .  S
C1439      C1440   1.419       .  A
C1439      C1444   1.410       .  A
C1439     Br1446   1.933       .  S
C1440      C1441   1.421       .  A
C1441      C1442   1.407       .  A
C1441     Br1448   1.932       .  S
C1442      C1443   1.405       .  A
C1442     Br1447   1.933       .  S
C1443      C1444   1.407       .  A
C1444     Br1445   1.929       .  S
C1449      C1450   1.405       .  A
C1449      C1454   1.404       .  A
C1449     Br1456   1.924       .  S
C1450      C1451   1.409       .  A
C1451      C1452   1.411       .  A
C1451     Br1458   1.934       .  S
C1452      C1453   1.425       .  A
C1452     Br1457   1.936       .  S
C1453      C1454   1.423       .  A
C1454     Br1455   1.941       .  S
C1459      C1956   1.422       .  A
C1459      C1464   1.407       .  A
C1459     Br1466   1.935       .  S
C1460      C1955   1.422       .  A
C1460      C1461   1.422   1_556  A
C1461      C1462   1.411       .  A
C1461     Br1468   1.935       .  S
C1462      C1463   1.407       .  A
C1462     Br1467   1.931       .  S
C1463      C1960   1.406   1_554  A
C1464      C1959   1.406       .  A
C1464     Br1465   1.933       .  S
C1469      C1470   1.419   1_554  A
C1469      C1474   1.410       .  A
C1469     Br1476   1.929       .  S
C1470      C1967   1.416       .  A
C1471      C1966   1.416       .  A
C1471      C1472   1.405       .  A
C1471     Br1478   1.932       .  S
C1472      C1969   1.405       .  A
C1472     Br1477   1.929       .  S
C1473      C1968   1.405   1_554  A
C1473      C1474   1.405       .  A
C1474     Br1475   1.928       .  S
C1479      C1480   1.409       .  A
C1479      C1484   1.408       .  A
C1479     Br1486   1.927       .  S
C1480      C1977   1.409   1_554  A
C1481      C1976   1.409       .  A
C1481      C1482   1.406       .  A
C1481     Br1488   1.927       .  S
C1482      C1979   1.412       .  A
C1482     Br1487   1.933       .  S
C1483      C1978   1.412   1_554  A
C1483      C1484   1.412       .  A
C1484     Br1485   1.932       .  S
C1489      C1490   1.404       .  A
C1489      C1494   1.406       .  A
C1489      C1959   1.482       .  S
C1490      C1491   1.403       .  A
C1490      H1495   1.084       .  S
C1491      C1492   1.401       .  A
C1491      C1976   1.480       .  S
C1492      C1493   1.401       .  A
C1492      H1496   1.085       .  S
C1493      C1494   1.401       .  A
C1493      C1969   1.478       .  S
C1494      H1497   1.084       .  S
C1498      C1499   1.408       .  A
C1498      C1503   1.408       .  A
C1498      C1926   1.489       .  S
C1499      C1500   1.403       .  A
C1499      H1504   1.084       .  S
C1500      C1501   1.399       .  A
C1500      C1939   1.480       .  S
C1501      C1502   1.399       .  A
C1501      H1505   1.085       .  S
C1502      C1503   1.407       .  A
C1502      C1946   1.486       .  S
C1503      H1506   1.084       .  S
Zn1507     O1512   1.973       .  S
Zn1507     O1516   1.996       .  S
Zn1507     O1523   2.002       .  S
Zn1508     O1513   2.037       .  S
Zn1508     O1515   2.047       .  S
Zn1508     O1519   2.024       .  S
Zn1508     O1511   1.964       .  S
Zn1509     O1514   2.020       .  S
Zn1509     O1517   2.013       .  S
Zn1509     O1520   1.991       .  S
Zn1509     O1511   1.946       .  S
Zn1510     O1518   2.036       .  S
Zn1510     O1521   2.020       .  S
Zn1510     O1522   2.040       .  S
O1512      C1524   1.265   1_556  A
O1513      C1525   1.275       .  A
O1514      C1526   1.272       .  A
O1517      C1525   1.272       .  A
O1519      C1528   1.276       .  A
O1520      C1527   1.271       .  A
O1522      C1529   1.275       .  A
O1523      C1529   1.271       .  A
C1524      C1906   1.504       .  S
C1525      C1551   1.463       .  S
C1526      C1979   1.477       .  S
C1527      C1916   1.489       .  S
C1529      C1549   1.461       .  S
Zn1530     O1535   2.026       .  S
Zn1530     O1539   2.039       .  S
Zn1530     O1546   2.038       .  S
Zn1530     O1534   1.957       .  S
Zn1531     O1536   2.040       .  S
Zn1531     O1538   2.025       .  S
Zn1531     O1542   2.049       .  S
Zn1531     O1534   1.956       .  S
Zn1532     O1537   2.001       .  S
Zn1532     O1540   1.999       .  S
Zn1532     O1543   2.016       .  S
Zn1532     O1534   1.937       .  S
Zn1533     O1541   2.000       .  S
Zn1533     O1544   1.997       .  S
Zn1533     O1545   1.996       .  S
Zn1533     O1534   1.932       .  S
O1535      C1547   1.276       .  A
O1536      C1548   1.276       .  A
O1537      C1549   1.270       .  A
O1538      C1547   1.276       .  A
O1539      C1549   1.275       .  A
O1540      C1548   1.272       .  A
O1541      C1550   1.268       .  A
O1542      C1551   1.276       .  A
O1543      C1550   1.269       .  A
O1544      C1551   1.269       .  A
O1545      C1552   1.272       .  A
O1546      C1552   1.276       .  A
C1548      C1896   1.493       .  S
C1550      C1949   1.499       .  S
C1552      C1886   1.485       .  S
C1553      C1554   1.400       .  A
C1553      C1558   1.402       .  A
C1553      C1866   1.472       .  S
C1554      C1555   1.398       .  A
C1554      H1559   1.084       .  S
C1555      C1556   1.401       .  A
C1555      C1919   1.475       .  S
C1556      C1557   1.404       .  A
C1556      H1560   1.084       .  S
C1557      C1558   1.405       .  A
C1557      C1876   1.488       .  S
C1558      H1561   1.083       .  S
C1562      C1563   1.406       .  A
C1562      C1567   1.402       .  A
C1562      C1846   1.478       .  S
C1563      C1564   1.403       .  A
C1563      H1568   1.084       .  S
C1564      C1565   1.402       .  A
C1564      C1899   1.481       .  S
C1565      C1566   1.401       .  A
C1565      H1569   1.085       .  S
C1566      C1567   1.400       .  A
C1566      C1856   1.476       .  S
C1567      H1570   1.084       .  S
Zn1571     O1576   2.007       .  S
Zn1571     O1580   2.013       .  S
Zn1571     O1587   2.021       .  S
Zn1572     O1577   2.020       .  S
Zn1572     O1579   2.030       .  S
Zn1572     O1583   2.039       .  S
Zn1572     O1575   1.961       .  S
Zn1573     O1578   2.024       .  S
Zn1573     O1581   2.024       .  S
Zn1573     O1584   2.027       .  S
Zn1574     O1582   2.007       .  S
Zn1574     O1585   1.997       .  S
Zn1574     O1586   2.001       .  S
Zn1574     O1575   1.944       .  S
O1578      C1590   1.273       .  A
O1579      C1588   1.275       .  A
O1580      C1590   1.271       .  A
O1581      C1589   1.276       .  A
O1582      C1591   1.273       .  A
O1583      C1592   1.274       .  A
O1585      C1592   1.269       .  A
O1586      C1593   1.269       .  A
C1588      C1966   1.489       .  S
C1590      C1615   1.460       .  S
C1591      C1836   1.475       .  S
C1592      C1613   1.460       .  S
C1593      C1879   1.500       .  S
Zn1594     O1599   1.998       .  S
Zn1594     O1603   2.019       .  S
Zn1594     O1610   2.011       .  S
Zn1594     O1598   1.950       .  S
Zn1595     O1600   2.028       .  S
Zn1595     O1602   2.037       .  S
Zn1595     O1606   2.040       .  S
Zn1595     O1598   1.966       .  S
Zn1596     O1601   2.019       .  S
Zn1596     O1604   2.018       .  S
Zn1596     O1607   2.031       .  S
Zn1596     O1598   1.960       .  S
Zn1597     O1605   1.991       .  S
Zn1597     O1608   2.000       .  S
Zn1597     O1609   2.009       .  S
Zn1597     O1598   1.949       .  S
O1599      C1611   1.271       .  A
O1600      C1612   1.276       .  A
O1601      C1613   1.272       .  A
O1602      C1611   1.275       .  A
O1603      C1613   1.273       .  A
O1604      C1612   1.275       .  A
O1605      C1614   1.270       .  A
O1606      C1615   1.275       .  A
O1607      C1614   1.275       .  A
O1608      C1615   1.271       .  A
O1609      C1616   1.271       .  A
O1610      C1616   1.272       .  A
C1611      C1936   1.494       .  S
C1614      C1829   1.475       .  S
C1616      C1859   1.480       .  S
C1617      C1618   1.406       .  A
C1617      C1622   1.409       .  A
C1617      C1909   1.489       .  S
C1618      C1619   1.404       .  A
C1619      C1620   1.400       .  A
C1620      C1621   1.398       .  A
C1620      H1624   1.085       .  S
C1621      C1622   1.403       .  A
C1621      C1806   1.478       .  S
C1622      H1625   1.084       .  S
C1626      C1627   1.402       .  A
C1626      C1631   1.405       .  A
C1626      C1889   1.476       .  S
C1627      C1628   1.400       .  A
C1628      C1629   1.400       .  A
C1629      C1630   1.403       .  A
C1629      H1633   1.085       .  S
C1630      C1631   1.404       .  A
C1630      C1786   1.482       .  S
C1631      H1634   1.084       .  S
Zn1635     O1640   2.035       .  S
Zn1635     O1644   2.033       .  S
Zn1635     O1651   2.013       .  S
Zn1635     O1639   1.964       .  S
Zn1636     O1641   1.990       .  S
Zn1636     O1643   1.999       .  S
Zn1636     O1647   1.995       .  S
Zn1637     O1642   2.013       .  S
Zn1637     O1645   2.017       .  S
Zn1637     O1648   1.997       .  S
Zn1637     O1639   1.951       .  S
Zn1638     O1646   2.041   1_655  S
Zn1638     O1649   2.043       .  S
Zn1638     O1650   2.033       .  S
O1640      C1652   1.274       .  A
O1642      C1654   1.272       .  A
O1644      C1654   1.275       .  A
O1645      C1653   1.273       .  A
O1647      C1656   1.270       .  A
O1648      C1655   1.271   1_655  A
O1649      C1656   1.276       .  A
O1651      C1657   1.273       .  A
C1652      C1956   1.497       .  S
C1654      C1677   1.462       .  S
C1655      C1779   1.488       .  S
C1656      C1679   1.460       .  S
C1657      C1719   1.471       .  S
Zn1658     O1663   1.992       .  S
Zn1658     O1667   2.000       .  S
Zn1658     O1674   2.012       .  S
Zn1658     O1662   1.953       .  S
Zn1659     O1664   2.012       .  S
Zn1659     O1666   2.023       .  S
Zn1659     O1670   2.012       .  S
Zn1659     O1662   1.959       .  S
Zn1660     O1665   2.048       .  S
Zn1660     O1668   2.039       .  S
Zn1660     O1671   2.047   1_655  S
Zn1660     O1662   1.966       .  S
Zn1661     O1669   1.994       .  S
Zn1661     O1672   2.023       .  S
Zn1661     O1673   2.014       .  S
Zn1661     O1662   1.950       .  S
O1663      C1675   1.270       .  A
O1664      C1676   1.274       .  A
O1665      C1677   1.277       .  A
O1666      C1675   1.273       .  A
O1667      C1677   1.271       .  A
O1668      C1676   1.277       .  A
O1669      C1678   1.270   1_655  A
O1670      C1679   1.271       .  A
O1671      C1678   1.276       .  A
O1672      C1679   1.273       .  A
O1673      C1680   1.272       .  A
O1674      C1680   1.271       .  A
C1675      C1929   1.467       .  S
C1676      C1741   1.472       .  S
C1678      C1766   1.503       .  S
C1680      C1799   1.480       .  S
C1681      C1682   1.403       .  A
C1681      C1686   1.404       .  A
C1681      C1839   1.479       .  S
C1682      C1683   1.401       .  A
C1682      H1687   1.084       .  S
C1683      C1684   1.401       .  A
C1683      C1776   1.479       .  S
C1684      H1688   1.084       .  S
C1685      C1756   1.491       .  S
C1690      C1691   1.403       .  A
C1690      C1695   1.403       .  A
C1690      C1826   1.477       .  S
C1691      C1692   1.403       .  A
C1691      H1696   1.084       .  S
C1692      C1693   1.403       .  A
C1692      C1769   1.484       .  S
C1693      H1697   1.084       .  S
C1694      C1746   1.489       .  S
Zn1699     O1704   2.025       .  S
Zn1699     O1708   2.013       .  S
Zn1699     O1715   2.012   1_455  S
Zn1700     O1705   1.996       .  S
Zn1700     O1707   2.012       .  S
Zn1700     O1711   1.998       .  S
Zn1700     O1703   1.942       .  S
Zn1701     O1706   2.019       .  S
Zn1701     O1709   2.020       .  S
Zn1701     O1712   2.017       .  S
Zn1702     O1710   2.029       .  S
Zn1702     O1713   2.025   1_655  S
Zn1702     O1714   2.022       .  S
Zn1702     O1703   1.956   1_655  S
O1705      C1717   1.272       .  A
O1706      C1718   1.272       .  A
O1707      C1716   1.270       .  A
O1708      C1718   1.272       .  A
O1710      C1719   1.277       .  A
O1711      C1720   1.270       .  A
O1713      C1720   1.272       .  A
O1715      C1721   1.275   1_556  A
C1716      C1759   1.502       .  S
C1717      C1869   1.471       .  S
C1718      C1740   1.459       .  S
C1720      C1744   1.457       .  S
C1721      C1809   1.476       .  S
Zn1722     O1727   2.022       .  S
Zn1722     O1731   2.028       .  S
Zn1722     O1738   2.024       .  S
Zn1722     O1726   1.959       .  S
Zn1723     O1728   1.998       .  S
Zn1723     O1730   2.003       .  S
Zn1723     O1734   2.003       .  S
Zn1723     O1726   1.943       .  S
Zn1724     O1729   2.026       .  S
Zn1724     O1732   2.034   1_655  S
Zn1724     O1735   2.027       .  S
Zn1724     O1726   1.956   1_655  S
Zn1725     O1733   2.008   1_455  S
Zn1725     O1736   2.026       .  S
Zn1725     O1737   2.001       .  S
Zn1725     O1726   1.947       .  S
O1727      C1739   1.274       .  A
O1728      C1740   1.270       .  A
O1729      C1741   1.277       .  A
O1730      C1739   1.272       .  A
O1731      C1741   1.276   1_455  A
O1732      C1740   1.273       .  A
O1733      C1742   1.273       .  A
O1734      C1743   1.269       .  A
O1735      C1742   1.275       .  A
O1736      C1743   1.271       .  A
O1737      C1744   1.270       .  A
O1738      C1744   1.272       .  A
C1739      C1849   1.470       .  S
C1742      C1789   1.471       .  S
C1743      C1749   1.504       .  S
C1745      C1746   1.409       .  A
C1745      C1750   1.406       .  A
C1745     Br1752   1.933       .  S
C1746      C1747   1.410       .  A
C1747      C1748   1.412       .  A
C1747     Br1754   1.936       .  S
C1748      C1749   1.426       .  A
C1748     Br1753   1.936       .  S
C1749      C1750   1.425       .  A
C1750     Br1751   1.941       .  S
C1755      C1760   1.410       .  A
C1755     Br1762   1.937       .  S
C1756      C1757   1.410       .  A
C1757      C1758   1.409       .  A
C1757     Br1764   1.932       .  S
C1758      C1759   1.424       .  A
C1758     Br1763   1.939       .  S
C1760     Br1761   1.937       .  S
C1765      C1766   1.424       .  A
C1765      C1770   1.412       .  A
C1765     Br1772   1.935       .  S
C1766      C1767   1.426       .  A
C1767      C1768   1.408       .  A
C1767     Br1774   1.937       .  S
C1768      C1769   1.406       .  A
C1768     Br1773   1.937       .  S
C1769      C1770   1.409       .  A
C1770     Br1771   1.933       .  S
C1775      C1776   1.406       .  A
C1775      C1780   1.408       .  A
C1775     Br1782   1.931       .  S
C1777      C1778   1.409       .  A
C1777     Br1784   1.932       .  S
C1778     Br1783   1.931       .  S
C1779      C1780   1.418       .  A
C1780     Br1781   1.933       .  S
C1785      C1786   1.412       .  A
C1785      C1790   1.406       .  A
C1785     Br1792   1.931       .  S
C1786      C1787   1.412       .  A
C1787      C1788   1.408       .  A
C1787     Br1794   1.928       .  S
C1788      C1789   1.407       .  A
C1788     Br1793   1.929       .  S
C1789      C1790   1.408       .  A
C1790     Br1791   1.931       .  S
C1795      C1796   1.408       .  A
C1795      C1800   1.407       .  A
C1795     Br1802   1.931       .  S
C1796      C1797   1.407       .  A
C1797      C1798   1.408       .  A
C1797     Br1804   1.931       .  S
C1798      C1799   1.415       .  A
C1798     Br1803   1.932       .  S
C1799      C1800   1.414       .  A
C1800     Br1801   1.933       .  S
C1805      C1806   1.410   1_556  A
C1805      C1810   1.405       .  A
C1805     Br1812   1.926       .  S
C1807      C1808   1.409       .  A
C1807     Br1814   1.929       .  S
C1808     Br1813   1.931       .  S
C1809      C1810   1.408   1_554  A
C1810     Br1811   1.931       .  S
C1815      C1820   1.404       .  A
C1815     Br1822   1.924       .  S
C1816      C1817   1.412   1_554  A
C1817      C1818   1.406       .  A
C1818      C1819   1.409   1_556  A
C1818     Br1823   1.931       .  S
C1820     Br1821   1.933       .  S
C1825      C1826   1.407       .  A
C1825      C1830   1.407       .  A
C1825     Br1832   1.927       .  S
C1826      C1827   1.409       .  A
C1827      C1828   1.406       .  A
C1827     Br1834   1.927       .  S
C1828      C1829   1.410       .  A
C1828     Br1833   1.931       .  S
C1829      C1830   1.411       .  A
C1830     Br1831   1.931       .  S
C1835      C1840   1.409       .  A
C1835     Br1842   1.930       .  S
C1836      C1837   1.409       .  A
C1837      C1838   1.406       .  A
C1837     Br1844   1.930       .  S
C1838      C1839   1.409       .  A
C1838     Br1843   1.926       .  S
C1840     Br1841   1.928       .  S
C1845      C1846   1.409       .  A
C1845      C1850   1.405       .  A
C1845     Br1852   1.929       .  S
C1846      C1847   1.411       .  A
C1847      C1848   1.407       .  A
C1847     Br1854   1.930       .  S
C1848      C1849   1.408       .  A
C1848     Br1853   1.929       .  S
C1849      C1850   1.409       .  A
C1850     Br1851   1.932       .  S
C1855      C1856   1.408       .  A
C1855      C1860   1.406       .  A
C1855     Br1862   1.930       .  S
C1856      C1857   1.407       .  A
C1857      C1858   1.408       .  A
C1857     Br1864   1.931       .  S
C1858      C1859   1.415       .  A
C1858     Br1863   1.933       .  S
C1859      C1860   1.414       .  A
C1860     Br1861   1.934       .  S
C1865      C1866   1.408       .  A
C1865      C1870   1.404       .  A
C1865     Br1872   1.930       .  S
C1867      C1868   1.406       .  A
C1867     Br1874   1.929       .  S
C1868     Br1873   1.931       .  S
C1869      C1870   1.410       .  A
C1870     Br1871   1.932       .  S
C1875      C1880   1.410       .  A
C1875     Br1882   1.937       .  S
C1876      C1877   1.410       .  A
C1877      C1878   1.406       .  A
C1877     Br1884   1.935       .  S
C1878      C1879   1.424       .  A
C1878     Br1883   1.940       .  S
C1880     Br1881   1.937       .  S
C1885      C1886   1.416       .  A
C1885      C1890   1.409       .  A
C1885     Br1892   1.930       .  S
C1886      C1887   1.416       .  A
C1887      C1888   1.406       .  A
C1887     Br1894   1.933       .  S
C1888      C1889   1.405       .  A
C1888     Br1893   1.930       .  S
C1889      C1890   1.406       .  A
C1895      C1896   1.419       .  A
C1895      C1900   1.406       .  A
C1895     Br1902   1.934       .  S
C1896      C1897   1.419       .  A
C1897      C1898   1.411       .  A
C1897     Br1904   1.931       .  S
C1898      C1899   1.407       .  A
C1898     Br1903   1.929       .  S
C1899      C1900   1.406       .  A
C1900     Br1901   1.931       .  S
C1905      C1906   1.429   1_556  A
C1905      C1910   1.408       .  A
C1905     Br1912   1.942       .  S
C1907      C1908   1.411       .  A
C1909      C1910   1.406   1_554  A
C1910     Br1911   1.933       .  S
C1915      C1920   1.409       .  A
C1915     Br1922   1.931       .  S
C1916      C1917   1.419       .  A
C1917      C1918   1.405       .  A
C1917     Br1924   1.931       .  S
C1918      C1919   1.403       .  A
C1918     Br1923   1.932       .  S
C1920     Br1921   1.931       .  S
C1925      C1926   1.414       .  A
C1925      C1930   1.407       .  A
C1925     Br1932   1.925       .  S
C1926      C1927   1.415       .  A
C1927      C1928   1.406       .  A
C1927     Br1934   1.920       .  S
C1928      C1929   1.403       .  A
C1928     Br1933   1.932       .  S
C1929      C1930   1.406       .  A
C1930     Br1931   1.931       .  S
C1935      C1936   1.419       .  A
C1935      C1940   1.410       .  A
C1935     Br1942   1.933       .  S
C1936      C1937   1.421       .  A
C1937      C1938   1.407       .  A
C1937     Br1944   1.932       .  S
C1938      C1939   1.405       .  A
C1938     Br1943   1.933       .  S
C1939      C1940   1.407       .  A
C1940     Br1941   1.929       .  S
C1945      C1946   1.405       .  A
C1945      C1950   1.404       .  A
C1945     Br1952   1.924       .  S
C1946      C1947   1.409       .  A
C1947      C1948   1.411       .  A
C1947     Br1954   1.934       .  S
C1948      C1949   1.425       .  A
C1948     Br1953   1.936       .  S
C1949      C1950   1.423       .  A
C1950     Br1951   1.941       .  S
C1955      C1960   1.407       .  A
C1955     Br1962   1.935       .  S
C1956      C1957   1.422       .  A
C1957      C1958   1.411       .  A
C1957     Br1964   1.935       .  S
C1958      C1959   1.407       .  A
C1958     Br1963   1.931       .  S
C1960     Br1961   1.933       .  S
C1965      C1966   1.419       .  A
C1965      C1970   1.410       .  A
C1965     Br1972   1.929       .  S
C1967      C1968   1.405       .  A
C1967     Br1974   1.932       .  S
C1968     Br1973   1.929       .  S
C1969      C1970   1.405       .  A
C1970     Br1971   1.928       .  S
C1975      C1976   1.409       .  A
C1975      C1980   1.408       .  A
C1975     Br1982   1.927       .  S
C1977      C1978   1.406       .  A
C1977     Br1984   1.927       .  S
C1978     Br1983   1.933       .  S
C1979      C1980   1.412       .  A
C1980     Br1981   1.932       .  S
