geometry optimzed in LAMMPS
_audit_creation_date              2020-11-30 
_audit_creation_method            'lammps2cif' 
_symmetry_space_group_name_H-M    'P1' 
_symmetry_Int_Tables_number       1 
_symmetry_cell_setting            triclinic 
loop_ 
_symmetry_equiv_pos_as_xyz 
  x,y,z 
_cell_length_a                    47.26819504 
_cell_length_b                    35.64305681002481 
_cell_length_c                    35.72407080705252 
_cell_angle_alpha                 91.08398853222212 
_cell_angle_beta                  89.99725582565006 
_cell_angle_gamma                 90.0000676109375 
loop_ 
_atom_site_label 
_atom_site_type_symbol 
_atom_site_fract_x 
_atom_site_fract_y 
_atom_site_fract_z 
_atom_site_charge 
C1          C  0.35488003  0.29980622  0.99633236     0.04000
C2          C  0.35080407  0.26063292  0.49717935    -0.12100
C3          C  0.32335936  0.24575895  0.49748167     0.01500
C4          C  0.30013117  0.27006128  0.49640126    -0.10700
C5          C  0.30382717  0.30894949  0.99528535     0.04000
C6          C  0.33122962  0.32388468  0.99552727    -0.10100
H7          H  0.36883439  0.24187183  0.49778409     0.09600
H8          H  0.27887216  0.25855356  0.49639481     0.07100
H9          H  0.33411439  0.35402632  0.99490691     0.07000
C10         C  0.35486503  0.29991037  0.24627151     0.04000
C11         C  0.33121563  0.32398782  0.24547096    -0.12100
C12         C  0.30381505  0.30905183  0.24521573     0.01500
C13         C  0.30012021  0.27016079  0.24630797    -0.10700
C14         C  0.32334942  0.24585987  0.24738241     0.04000
C15         C  0.35079258  0.26073626  0.24709792    -0.10100
H16         H  0.33410011  0.35413045  0.24486807     0.09600
H17         H  0.27886228  0.25864973  0.24629836     0.07100
H18         H  0.36882405  0.24197746  0.24770605     0.07000
O19         O  0.23787497  0.16166408  0.02136801    -0.77600
C20         C  0.29142288  0.10469808  0.10214587     0.83400
O21         O  0.33002391  0.18253055  0.47613782    -0.78700
O22         O  0.34417609  0.04898384  0.01460085    -0.80200
O23         O  0.24541934  0.03666657  0.47525690    -0.80000
O24         O  0.22217532  0.12579876  0.47413363    -0.78600
Zn25       Zn  0.27784905  0.14697814  0.03137377     1.55700
O26         O  0.27706247  0.01667442  0.01678252    -0.80000
Cd27       Cd  0.25728650  0.09140456  0.46534347     1.59700
Cd28       Cd  0.32240266  0.12540746  0.46690933     1.59600
O29         O  0.26887630  0.09470338  0.40965696    -0.80000
O30         O  0.28998084  0.10696486  0.49796093    -1.90500
Cd31       Cd  0.30264319  0.06294501  0.02756167     1.59900
O32         O  0.31307866  0.11728482  0.41049752    -0.80000
O33         O  0.30026973  0.07553092  0.08456735    -0.78600
C34         C  0.31776082  0.20518779  0.49889651     0.83900
C35         C  0.21880443  0.15262766  0.49778896     0.83600
O36         O  0.28229175  0.13344330  0.08536459    -0.77600
C37         C  0.25548888  0.01116909  0.49593683     0.84400
O38         O  0.29880652  0.19427783  0.02145797    -0.77700
C39         C  0.29125412  0.10531038  0.39300600     0.84500
C40         C  0.36355262  0.06565841  0.49642618     0.84800
O41         O  0.35888678  0.09573213  0.47864145    -0.80100
O42         O  0.23788213  0.16178278  0.27144281    -0.77600
C43         C  0.29145030  0.10476167  0.35215393     0.83400
O44         O  0.32999292  0.18262701  0.22603453    -0.78700
O45         O  0.34415667  0.04908563  0.26459821    -0.80200
O46         O  0.24539033  0.03680957  0.22528767    -0.80000
O47         O  0.22216940  0.12594431  0.22419347    -0.78600
Zn48       Zn  0.27787382  0.14709670  0.28139668     1.55700
O49         O  0.27705491  0.01679322  0.26677007    -0.80000
Cd50       Cd  0.25726642  0.09154118  0.21536507     1.59700
Cd51       Cd  0.32238816  0.12548663  0.21687171     1.59600
O52         O  0.26883311  0.09479261  0.15966682    -0.80000
O53         O  0.28997463  0.10708426  0.24796046    -1.90500
Cd54       Cd  0.30263013  0.06305393  0.27754758     1.59900
O55         O  0.31307086  0.11724947  0.16047003    -0.80000
O56         O  0.30025037  0.07558699  0.33455081    -0.78600
C57         C  0.31775454  0.20528969  0.24881371     0.83900
C58         C  0.21880243  0.15275470  0.24787047     0.83600
O59         O  0.28236000  0.13354645  0.33539626    -0.77600
C60         C  0.25546942  0.01130104  0.24594578     0.84400
O61         O  0.29882918  0.19438622  0.27142148    -0.77700
C62         C  0.29122940  0.10530228  0.14299755     0.84500
C63         C  0.36353674  0.06575973  0.24643243     0.84800
O64         O  0.35887543  0.09583299  0.22864392    -0.80100
C65         C  0.14235399  0.18546884  0.99488787     0.04000
C66         C  0.14640280  0.22466125  0.99427491    -0.12100
C67         C  0.17384117  0.23957884  0.99429958     0.01500
C68         C  0.19707890  0.21529663  0.99550010    -0.10700
C69         C  0.19340593  0.17639046  0.99635205     0.04000
C70         C  0.16601795  0.16142217  0.99579113    -0.10100
H71         H  0.12836154  0.24339716  0.99354963     0.09600
H72         H  0.21832935  0.22683423  0.99571355     0.07100
H73         H  0.16315408  0.13126948  0.99620822     0.07000
C74         C  0.14234208  0.18557506  0.24492336     0.04000
C75         C  0.14638706  0.22476707  0.24432079    -0.12100
C76         C  0.17382355  0.23968797  0.24438109     0.01500
C77         C  0.19706418  0.21541511  0.24562240    -0.10700
C78         C  0.19339735  0.17650922  0.24645559     0.04000
C79         C  0.16601029  0.16153368  0.24584752    -0.10100
H80         H  0.12834506  0.24349990  0.24356984     0.09600
H81         H  0.21831244  0.22695970  0.24586051     0.07100
H82         H  0.16315028  0.13137951  0.24624245     0.07000
O83         O  0.21484853  0.35175855  0.40615194    -0.77600
C84         C  0.27843440  0.33271414  0.49380330     0.83400
O85         O  0.16716112  0.30285938  0.01555722    -0.78700
O86         O  0.22839877  0.39055185  0.08187890    -0.80200
O87         O  0.22020747  0.46869041  0.47482046    -0.80000
O88         O  0.19720298  0.40984764  0.40696849    -0.78600
Zn89       Zn  0.21936212  0.33830061  0.46020947     1.55700
O90         O  0.25181715  0.44869721  0.01638324    -0.80000
Cd91       Cd  0.19470631  0.42238188  0.46393122     1.59700
Cd92       Cd  0.17479843  0.36002106  0.02465103     1.59600
O93         O  0.15312531  0.43624734  0.47653957    -0.80000
O94         O  0.20726524  0.37836149  0.49359359    -1.90500
Cd95       Cd  0.23995653  0.39393328  0.02621285     1.59900
O96         O  0.13833149  0.38966224  0.01265487    -0.80000
O97         O  0.27506699  0.35956642  0.01742857    -0.78600
C98         C  0.17943785  0.28015682  0.49285312     0.83900
C99         C  0.20586756  0.38060015  0.38937964     0.83600
O100        O  0.25936048  0.32364436  0.47023427    -0.77600
C101        C  0.24175666  0.47420204  0.49570540     0.84400
O102        O  0.19840187  0.29102973  0.47028544    -0.77700
C103        C  0.13369981  0.41961966  0.49465931     0.84500
C104        C  0.20600103  0.38005460  0.09854514     0.84800
O105        O  0.18412084  0.36822410  0.08107277    -0.80100
O106        O  0.21479945  0.35179489  0.15618494    -0.77600
C107        C  0.27842410  0.33281991  0.24375319     0.83400
O108        O  0.16712982  0.30298128  0.26557335    -0.80300
O109        O  0.22843063  0.39057030  0.33186494    -0.80200
O110        O  0.22020811  0.46880546  0.22479785    -0.80000
O111        O  0.19720075  0.40991060  0.15695735    -0.78600
Zn112      Zn  0.21933388  0.33837703  0.21023262     1.55700
O113        O  0.25179372  0.44883564  0.26640497    -0.80000
Cd114      Cd  0.19470775  0.42248747  0.21391287     1.59700
Cd115      Cd  0.17479153  0.36013457  0.27463229     1.59600
O116        O  0.15312110  0.43635347  0.22650494    -0.80000
O117        O  0.20726357  0.37847079  0.24358535    -1.90500
Cd118      Cd  0.23996523  0.39404683  0.27619057     1.59900
O119        O  0.13832291  0.38977440  0.26262383    -0.80000
O120        O  0.27508912  0.35971552  0.26733829    -0.78600
C121        C  0.17941668  0.28026046  0.24290180     0.83900
C122        C  0.20583588  0.38063205  0.13939294     0.83600
O123        O  0.25932193  0.32371439  0.22024046    -0.77600
C124        C  0.24174111  0.47433180  0.24570934     0.84400
O125        O  0.19838776  0.29111434  0.22033875    -0.77700
C126        C  0.13369117  0.41972574  0.24461758     0.84500
C127        C  0.20603144  0.38006761  0.34852815     0.84800
O128        O  0.18413767  0.36829080  0.33104981    -0.80100
C129        C  0.39235600  0.04977115  0.49604155     0.04000
C130        C  0.41602381  0.07381360  0.49512084    -0.12100
C131        C  0.44341129  0.05883890  0.49451869     0.01500
C132        C  0.44707866  0.01993311  0.49535406    -0.10700
C133        C  0.42383827  0.49565930  0.49659066     0.04000
C134        C  0.39640166  0.01057941  0.49664547    -0.10100
H135        H  0.41316307  0.10396759  0.49472377     0.09600
H136        H  0.46832709  0.00838928  0.49511925     0.07100
H137        H  0.37835965  0.49184594  0.49739292     0.07000
C138        C  0.39233948  0.04987338  0.24607139     0.04000
C139        C  0.41600401  0.07391978  0.24517244    -0.12100
C140        C  0.44339191  0.05895103  0.24461395     0.01500
C141        C  0.44706412  0.02004464  0.24546346    -0.10700
C142        C  0.42382594  0.49576251  0.24665983     0.04000
C143        C  0.39638775  0.01068066  0.24668218    -0.10100
H144        H  0.41314068  0.10407265  0.24475679     0.09600
H145        H  0.46831450  0.00850681  0.24525114     0.07100
H146        H  0.37834616  0.49194498  0.24740456     0.07000
O147        O  0.46480487  0.38354619  0.08477635    -0.77600
C148        C  0.02843754  0.40252386  0.49720141     0.83400
O149        O  0.41714081  0.43236640  0.47540031    -0.78700
O150        O  0.47843415  0.34477557  0.40908838    -0.80200
O151        O  0.47022495  0.26654276  0.01616108    -0.80000
O152        O  0.44720423  0.32543145  0.08400036    -0.78600
Zn153      Zn  0.46934721  0.39696551  0.03072907     1.55700
O154        O  0.00180863  0.28651218  0.47454695    -0.80000
Cd155      Cd  0.44471952  0.31285590  0.02704480     1.59700
Cd156      Cd  0.42480208  0.37521385  0.46633775     1.59600
O157        O  0.40313528  0.29898300  0.01445027    -0.80000
O158        O  0.45727613  0.35687473  0.49737459    -1.90500
Cd159      Cd  0.48997611  0.34130087  0.46476070     1.59900
O160        O  0.38833468  0.34557266  0.47834902    -0.80000
O161        O  0.02509934  0.37563614  0.47360812    -0.78600
C162        C  0.42943134  0.45508653  0.49806735     0.83900
C163        C  0.45583759  0.35470916  0.10156652     0.83600
O164        O  0.00933763  0.41162326  0.02072229    -0.77600
C165        C  0.49175803  0.26101687  0.49524697     0.84400
O166        O  0.44840466  0.44423118  0.02062401    -0.77700
C167        C  0.38370443  0.31561485  0.49634573     0.84500
C168        C  0.45603270  0.35527882  0.39243286     0.84800
O169        O  0.43414200  0.36705805  0.40991868    -0.80100
O170        O  0.46484007  0.38358557  0.33480462    -0.77600
C171        C  0.02842040  0.40262265  0.24714930     0.83400
O172        O  0.41714747  0.43248140  0.22540119    -0.78700
O173        O  0.47839164  0.34478346  0.15908215    -0.80200
O174        O  0.47018818  0.26664710  0.26614643    -0.80000
O175        O  0.44719280  0.32549751  0.33399676    -0.78600
Zn176      Zn  0.46934631  0.39704141  0.28074580     1.55700
O177        O  0.00180027  0.28663681  0.22458124    -0.80000
Cd178      Cd  0.44468982  0.31296027  0.27703470     1.59700
Cd179      Cd  0.42478662  0.37531903  0.21630697     1.59600
O180        O  0.40310770  0.29909921  0.26443153    -0.80000
O181        O  0.45725029  0.35697776  0.24736627    -1.90500
Cd182      Cd  0.48994368  0.34140128  0.21474836     1.59900
O183        O  0.38831965  0.34567550  0.22830204    -0.80000
O184        O  0.02505632  0.37576451  0.22353022    -0.78600
C185        C  0.42942234  0.45518409  0.24810558     0.83900
C186        C  0.45586175  0.35474471  0.35158136     0.83600
O187        O  0.00934310  0.41169811  0.27071350    -0.77600
C188        C  0.49173842  0.26113354  0.24526115     0.84400
O189        O  0.44838485  0.44431114  0.27067297    -0.77700
C190        C  0.38368516  0.31572276  0.24630478     0.84500
C191        C  0.45599705  0.35528495  0.14241430     0.84800
O192        O  0.43411556  0.36711788  0.15988512    -0.80100
C193        C  0.10487966  0.43543246  0.49469179     0.04000
C194        C  0.08122979  0.41135507  0.49548756    -0.12100
C195        C  0.05382927  0.42629134  0.49574011     0.01500
C196        C  0.05013505  0.46518259  0.49465030    -0.10700
C197        C  0.07336464  0.48948369  0.49358063     0.04000
C198        C  0.10080761  0.47460685  0.49386773    -0.10100
H199        H  0.08411383  0.38121237  0.49608897     0.09600
H200        H  0.02887717  0.47669368  0.49465863     0.07100
H201        H  0.11883937  0.49336564  0.49326295     0.07000
C202        C  0.10486626  0.43553220  0.24462827     0.04000
C203        C  0.10078964  0.47470523  0.24378010    -0.12100
C204        C  0.07334484  0.48957842  0.24347268     0.01500
C205        C  0.05011696  0.46527519  0.24454841    -0.10700
C206        C  0.05381342  0.42638708  0.24566617     0.04000
C207        C  0.08121622  0.41145269  0.24542996    -0.10100
H208        H  0.11881989  0.49346693  0.24317863     0.09600
H209        H  0.02885779  0.47678221  0.24455159     0.07100
H210        H  0.08410164  0.38131124  0.24605227     0.07000
O211        O  0.48789922  0.07355991  0.46953422    -0.77600
C212        C  0.04145530  0.13057868  0.38880962     0.83400
O213        O  0.08000676  0.05271708  0.01493003    -0.78700
O214        O  0.09417389  0.18625313  0.47635455    -0.80200
O215        O  0.49540730  0.19854096  0.01567307    -0.80000
O216        O  0.47218044  0.10940917  0.01677348    -0.78600
Zn217      Zn  0.02788916  0.08824644  0.45957250     1.55700
O218        O  0.02707380  0.21855407  0.47418785    -0.80000
Cd219      Cd  0.00727956  0.14380882  0.02559878     1.59700
Cd220      Cd  0.07240025  0.10985814  0.02409411     1.59600
O221        O  0.01884123  0.14055679  0.08129702    -0.80000
O222        O  0.03998946  0.12826141  0.49300421    -1.90500
Cd223      Cd  0.05264619  0.17228892  0.46341095     1.59900
O224        O  0.06307709  0.11809316  0.08049630    -0.80000
O225        O  0.05025985  0.15975301  0.40640840    -0.78600
C226        C  0.06776994  0.03005430  0.49215069     0.83900
C227        C  0.46881649  0.08259333  0.49310235     0.83600
O228        O  0.03236760  0.10179467  0.40557178    -0.77600
C229        C  0.00548741  0.22404810  0.49501277     0.84400
O230        O  0.04884581  0.04095798  0.46954371    -0.77700
C231        C  0.04123451  0.13004286  0.09796761     0.84500
C232        C  0.11355121  0.16958286  0.49452663     0.84800
O233        O  0.10888736  0.13951418  0.01232207    -0.80100
O234        O  0.48785975  0.07368294  0.21959204    -0.77600
C235        C  0.04142246  0.13064529  0.13881937     0.83400
O236        O  0.08001281  0.05280664  0.26481443    -0.78700
O237        O  0.09416181  0.18636448  0.22636922    -0.80200
O238        O  0.49540404  0.19867007  0.26571596    -0.80000
O239        O  0.47216529  0.10953367  0.26684305    -0.78600
Zn240      Zn  0.02783641  0.08836390  0.20958901     1.55700
O241        O  0.02704541  0.21866206  0.22418361    -0.80000
Cd242      Cd  0.00727530  0.14393203  0.27562961     1.59700
Cd243      Cd  0.07239202  0.10992916  0.27404584     1.59600
O244        O  0.01887203  0.14063498  0.33131415    -0.80000
O245        O  0.03996829  0.12837436  0.24300385    -1.90500
Cd246      Cd  0.05263134  0.17239654  0.21340574     1.59900
O247        O  0.06307397  0.11805194  0.33045897    -0.80000
O248        O  0.05026652  0.15981206  0.15639984    -0.78600
C249        C  0.06774627  0.03014988  0.24206021     0.83900
C250        C  0.46879131  0.08271314  0.24317902     0.83600
O251        O  0.03228820  0.10189981  0.15559870    -0.77600
C252        C  0.00547159  0.22416687  0.24503185     0.84400
O253        O  0.04878995  0.04106115  0.21950476    -0.77700
C254        C  0.04125222  0.13002822  0.34795765     0.84500
C255        C  0.11353929  0.16968565  0.24453576     0.84800
O256        O  0.10887499  0.13960543  0.26231073    -0.80100
C257        C  0.35488007  0.29980622  0.49633236     0.04000
C258        C  0.35080403  0.26063292  0.99717937    -0.12100
C259        C  0.32335931  0.24575896  0.99748170     0.01500
C260        C  0.30013115  0.27006129  0.99640125    -0.10700
C261        C  0.30382719  0.30894949  0.49528542     0.04000
C262        C  0.33122964  0.32388468  0.49552729    -0.10100
H263        H  0.36883431  0.24187184  0.99778412     0.09600
H264        H  0.27887210  0.25855355  0.99639485     0.07100
H265        H  0.33411442  0.35402631  0.49490688     0.07000
C266        C  0.35486508  0.29991036  0.74627156     0.04000
C267        C  0.33121570  0.32398783  0.74547099    -0.12100
C268        C  0.30381510  0.30905185  0.74521573     0.01500
C269        C  0.30012024  0.27016081  0.74630795    -0.10700
C270        C  0.32334944  0.24585986  0.74738235     0.04000
C271        C  0.35079261  0.26073624  0.74709792    -0.10100
H272        H  0.33410018  0.35413041  0.74486810     0.09600
H273        H  0.27886231  0.25864980  0.74629838     0.07100
H274        H  0.36882407  0.24197743  0.74770609     0.07000
O275        O  0.23787495  0.16166422  0.52136807    -0.77600
C276        C  0.29142291  0.10469802  0.60214590     0.83400
O277        O  0.33002384  0.18253056  0.97613780    -0.78700
O278        O  0.34417615  0.04898380  0.51460096    -0.80200
O279        O  0.24541921  0.03666657  0.97525690    -0.80000
O280        O  0.22217534  0.12579875  0.97413353    -0.78600
Zn281      Zn  0.27784907  0.14697818  0.53137379     1.55700
O282        O  0.27706259  0.01667440  0.51678254    -0.80000
Cd283      Cd  0.25728646  0.09140457  0.96534349     1.59700
Cd284      Cd  0.32240270  0.12540743  0.96690930     1.59600
O285        O  0.26887629  0.09470331  0.90965695    -0.80000
O286        O  0.28998085  0.10696485  0.99796091    -1.90500
Cd287      Cd  0.30264326  0.06294504  0.52756170     1.59900
O288        O  0.31307862  0.11728485  0.91049746    -0.80000
O289        O  0.30026978  0.07553087  0.58456739    -0.78600
C290        C  0.31776078  0.20518780  0.99889652     0.83900
C291        C  0.21880445  0.15262759  0.99778889     0.83600
O292        O  0.28229180  0.13344325  0.58536461    -0.77600
C293        C  0.25548878  0.01116907  0.99593680     0.84400
O294        O  0.29880654  0.19427782  0.52145790    -0.77700
C295        C  0.29125408  0.10531042  0.89300596     0.84500
C296        C  0.36355260  0.06565844  0.99642613     0.84800
O297        O  0.35888683  0.09573219  0.97864142    -0.80100
O298        O  0.23788209  0.16178274  0.77144288    -0.77600
C299        C  0.29145028  0.10476171  0.85215390     0.83400
O300        O  0.32999286  0.18262695  0.72603445    -0.78700
O301        O  0.34415665  0.04908554  0.76459815    -0.80200
O302        O  0.24539043  0.03680961  0.72528770    -0.80000
O303        O  0.22216940  0.12594430  0.72419350    -0.78600
Zn304      Zn  0.27787386  0.14709676  0.78139669     1.55700
O305        O  0.27705492  0.01679315  0.76677015    -0.80000
Cd306      Cd  0.25726649  0.09154127  0.71536512     1.59700
Cd307      Cd  0.32238822  0.12548656  0.71687173     1.59600
O308        O  0.26883309  0.09479274  0.65966686    -0.80000
O309        O  0.28997472  0.10708427  0.74796053    -1.90500
Cd310      Cd  0.30263016  0.06305386  0.77754761     1.59900
O311        O  0.31307092  0.11724926  0.66047006    -0.80000
O312        O  0.30025041  0.07558705  0.83455079    -0.78600
C313        C  0.31775454  0.20528967  0.74881368     0.83900
C314        C  0.21880240  0.15275466  0.74787052     0.83600
O315        O  0.28236004  0.13354653  0.83539621    -0.77600
C316        C  0.25546945  0.01130103  0.74594580     0.84400
O317        O  0.29882923  0.19438623  0.77142155    -0.77700
C318        C  0.29122942  0.10530224  0.64299758     0.84500
C319        C  0.36353675  0.06575972  0.74643247     0.84800
O320        O  0.35887546  0.09583300  0.72864404    -0.80100
C321        C  0.14235395  0.18546874  0.49488790     0.04000
C322        C  0.14640273  0.22466117  0.49427487    -0.12100
C323        C  0.17384111  0.23957880  0.49429959     0.01500
C324        C  0.19707882  0.21529664  0.49550021    -0.10700
C325        C  0.19340589  0.17639048  0.49635213     0.04000
C326        C  0.16601792  0.16142215  0.49579124    -0.10100
H327        H  0.12836144  0.24339702  0.49354951     0.09600
H328        H  0.21832931  0.22683431  0.49571374     0.07100
H329        H  0.16315407  0.13126941  0.49620842     0.07000
C330        C  0.14234210  0.18557513  0.74492329     0.04000
C331        C  0.14638707  0.22476713  0.74432077    -0.12100
C332        C  0.17382354  0.23968800  0.74438109     0.01500
C333        C  0.19706418  0.21541513  0.74562242    -0.10700
C334        C  0.19339735  0.17650923  0.74645559     0.04000
C335        C  0.16601028  0.16153372  0.74584750    -0.10100
H336        H  0.12834507  0.24349998  0.74356988     0.09600
H337        H  0.21831244  0.22695971  0.74586055     0.07100
H338        H  0.16315024  0.13137956  0.74624248     0.07000
O339        O  0.21484844  0.35175848  0.90615194    -0.77600
C340        C  0.27843438  0.33271411  0.99380321     0.83400
O341        O  0.16716116  0.30285934  0.51555727    -0.78700
O342        O  0.22839878  0.39055198  0.58187891    -0.80200
O343        O  0.22020744  0.46869038  0.97482050    -0.80000
O344        O  0.19720310  0.40984770  0.90696847    -0.78600
Zn345      Zn  0.21936216  0.33830054  0.96020948     1.55700
O346        O  0.25181710  0.44869731  0.51638336    -0.80000
Cd347      Cd  0.19470624  0.42238192  0.96393122     1.59700
Cd348      Cd  0.17479842  0.36002108  0.52465105     1.59600
O349        O  0.15312526  0.43624745  0.97653963    -0.80000
O350        O  0.20726520  0.37836144  0.99359354    -1.90500
Cd351      Cd  0.23995659  0.39393336  0.52621290     1.59900
O352        O  0.13833147  0.38966222  0.51265489    -0.80000
O353        O  0.27506704  0.35956644  0.51742869    -0.78600
C354        C  0.17943790  0.28015686  0.99285314     0.83900
C355        C  0.20586761  0.38060015  0.88937964     0.83600
O356        O  0.25936047  0.32364424  0.97023420    -0.77600
C357        C  0.24175669  0.47420197  0.99570535     0.84400
O358        O  0.19840195  0.29102978  0.97028553    -0.77700
C359        C  0.13369978  0.41961970  0.99465932     0.84500
C360        C  0.20600107  0.38005462  0.59854514     0.84800
O361        O  0.18412091  0.36822403  0.58107278    -0.80100
O362        O  0.21479948  0.35179499  0.65618495    -0.77600
C363        C  0.27842415  0.33281995  0.74375316     0.83400
O364        O  0.16712974  0.30298124  0.76557343    -0.80300
O365        O  0.22843071  0.39057041  0.83186498    -0.80200
O366        O  0.22020809  0.46880552  0.72479796    -0.80000
O367        O  0.19720070  0.40991064  0.65695732    -0.78600
Zn368      Zn  0.21933386  0.33837708  0.71023263     1.55700
O369        O  0.25179377  0.44883561  0.76640491    -0.80000
Cd370      Cd  0.19470770  0.42248752  0.71391289     1.59700
Cd371      Cd  0.17479155  0.36013449  0.77463232     1.59600
O372        O  0.15312106  0.43635343  0.72650501    -0.80000
O373        O  0.20726356  0.37847081  0.74358535    -1.90500
Cd374      Cd  0.23996521  0.39404689  0.77619059     1.59900
O375        O  0.13832287  0.38977431  0.76262386    -0.80000
O376        O  0.27508917  0.35971561  0.76733820    -0.78600
C377        C  0.17941661  0.28026050  0.74290183     0.83900
C378        C  0.20583590  0.38063211  0.63939292     0.83600
O379        O  0.25932195  0.32371437  0.72024048    -0.77600
C380        C  0.24174115  0.47433181  0.74570934     0.84400
O381        O  0.19838766  0.29111446  0.72033878    -0.77700
C382        C  0.13369113  0.41972567  0.74461763     0.84500
C383        C  0.20603152  0.38006764  0.84852816     0.84800
O384        O  0.18413776  0.36829086  0.83104981    -0.80100
C385        C  0.39235596  0.04977119  0.99604156     0.04000
C386        C  0.41602377  0.07381361  0.99512088    -0.12100
C387        C  0.44341124  0.05883891  0.99451874     0.01500
C388        C  0.44707860  0.01993311  0.99535409    -0.10700
C389        C  0.42383824  0.49565935  0.99659071     0.04000
C390        C  0.39640160  0.01057942  0.99664547    -0.10100
H391        H  0.41316306  0.10396764  0.99472380     0.09600
H392        H  0.46832704  0.00838929  0.99511927     0.07100
H393        H  0.37835963  0.49184600  0.99739285     0.07000
C394        C  0.39233948  0.04987335  0.74607144     0.04000
C395        C  0.41600402  0.07391976  0.74517249    -0.12100
C396        C  0.44339191  0.05895096  0.74461400     0.01500
C397        C  0.44706413  0.02004460  0.74546351    -0.10700
C398        C  0.42382589  0.49576249  0.74665982     0.04000
C399        C  0.39638776  0.01068067  0.74668223    -0.10100
H400        H  0.41314071  0.10407257  0.74475681     0.09600
H401        H  0.46831454  0.00850676  0.74525116     0.07100
H402        H  0.37834607  0.49194499  0.74740459     0.07000
O403        O  0.46480490  0.38354614  0.58477625    -0.77600
C404        C  0.02843749  0.40252383  0.99720143     0.83400
O405        O  0.41714074  0.43236642  0.97540034    -0.78700
O406        O  0.47843407  0.34477550  0.90908845    -0.80200
O407        O  0.47022496  0.26654283  0.51616103    -0.80000
O408        O  0.44720428  0.32543141  0.58400033    -0.78600
Zn409      Zn  0.46934717  0.39696544  0.53072893     1.55700
O410        O  0.00180854  0.28651218  0.97454699    -0.80000
Cd411      Cd  0.44471957  0.31285595  0.52704469     1.59700
Cd412      Cd  0.42480202  0.37521383  0.96633780     1.59600
O413        O  0.40313534  0.29898300  0.51445022    -0.80000
O414        O  0.45727611  0.35687477  0.99737474    -1.90500
Cd415      Cd  0.48997606  0.34130090  0.96476074     1.59900
O416        O  0.38833462  0.34557266  0.97834905    -0.80000
O417        O  0.02509924  0.37563616  0.97360808    -0.78600
C418        C  0.42943130  0.45508655  0.99806736     0.83900
C419        C  0.45583761  0.35470914  0.60156648     0.83600
O420        O  0.00933765  0.41162330  0.52072223    -0.77600
C421        C  0.49175804  0.26101683  0.99524700     0.84400
O422        O  0.44840468  0.44423116  0.52062401    -0.77700
C423        C  0.38370438  0.31561485  0.99634575     0.84500
C424        C  0.45603268  0.35527889  0.89243289     0.84800
O425        O  0.43414198  0.36705816  0.90991868    -0.80100
O426        O  0.46484016  0.38358561  0.83480458    -0.77600
C427        C  0.02842037  0.40262268  0.74714934     0.83400
O428        O  0.41714748  0.43248139  0.72540116    -0.78700
O429        O  0.47839165  0.34478354  0.65908216    -0.80200
O430        O  0.47018817  0.26664703  0.76614631    -0.80000
O431        O  0.44719286  0.32549756  0.83399680    -0.78600
Zn432      Zn  0.46934627  0.39704147  0.78074569     1.55700
O433        O  0.00180029  0.28663683  0.72458125    -0.80000
Cd434      Cd  0.44468991  0.31296030  0.77703472     1.59700
Cd435      Cd  0.42478668  0.37531908  0.71630699     1.59600
O436        O  0.40310778  0.29909924  0.76443149    -0.80000
O437        O  0.45725034  0.35697776  0.74736624    -1.90500
Cd438      Cd  0.48994375  0.34140134  0.71474838     1.59900
O439        O  0.38831967  0.34567559  0.72830213    -0.80000
O440        O  0.02505629  0.37576453  0.72353030    -0.78600
C441        C  0.42942232  0.45518409  0.74810554     0.83900
C442        C  0.45586180  0.35474477  0.85158137     0.83600
O443        O  0.00934306  0.41169820  0.77071352    -0.77600
C444        C  0.49173846  0.26113351  0.74526110     0.84400
O445        O  0.44838484  0.44431116  0.77067289    -0.77700
C446        C  0.38368521  0.31572280  0.74630481     0.84500
C447        C  0.45599706  0.35528503  0.64241430     0.84800
O448        O  0.43411558  0.36711803  0.65988513    -0.80100
C449        C  0.10487963  0.43543241  0.99469179     0.04000
C450        C  0.08122977  0.41135501  0.99548760    -0.12100
C451        C  0.05382924  0.42629128  0.99574016     0.01500
C452        C  0.05013504  0.46518257  0.99465034    -0.10700
C453        C  0.07336465  0.48948368  0.99358068     0.04000
C454        C  0.10080759  0.47460681  0.99386773    -0.10100
H455        H  0.08411382  0.38121227  0.99608901     0.09600
H456        H  0.02887721  0.47669368  0.99465865     0.07100
H457        H  0.11883936  0.49336558  0.99326291     0.07000
C458        C  0.10486622  0.43553218  0.74462830     0.04000
C459        C  0.10078960  0.47470523  0.74378013    -0.12100
C460        C  0.07334480  0.48957844  0.74347271     0.01500
C461        C  0.05011693  0.46527521  0.74454844    -0.10700
C462        C  0.05381338  0.42638710  0.74566617     0.04000
C463        C  0.08121617  0.41145270  0.74542997    -0.10100
H464        H  0.11881983  0.49346691  0.74317867     0.09600
H465        H  0.02885775  0.47678223  0.74455163     0.07100
H466        H  0.08410157  0.38131126  0.74605230     0.07000
O467        O  0.48789911  0.07355998  0.96953424    -0.77600
C468        C  0.04145534  0.13057871  0.88880965     0.83400
O469        O  0.08000667  0.05271703  0.51493010    -0.78700
O470        O  0.09417393  0.18625325  0.97635458    -0.80200
O471        O  0.49540722  0.19854103  0.51567305    -0.80000
O472        O  0.47218047  0.10940929  0.51677329    -0.78600
Zn473      Zn  0.02788913  0.08824654  0.95957252     1.55700
O474        O  0.02707381  0.21855406  0.97418788    -0.80000
Cd475      Cd  0.00727952  0.14380891  0.52559881     1.59700
Cd476      Cd  0.07240016  0.10985804  0.52409414     1.59600
O477        O  0.01884128  0.14055688  0.58129704    -0.80000
O478        O  0.03998953  0.12826143  0.99300422    -1.90500
Cd479      Cd  0.05264626  0.17228891  0.96341098     1.59900
O480        O  0.06307707  0.11809302  0.58049634    -0.80000
O481        O  0.05025993  0.15975300  0.90640845    -0.78600
C482        C  0.06776994  0.03005434  0.99215071     0.83900
C483        C  0.46881642  0.08259331  0.99310245     0.83600
O484        O  0.03236756  0.10179474  0.90557178    -0.77600
C485        C  0.00548740  0.22404806  0.99501278     0.84400
O486        O  0.04884575  0.04095802  0.96954381    -0.77700
C487        C  0.04123453  0.13004282  0.59796764     0.84500
C488        C  0.11355127  0.16958298  0.99452664     0.84800
O489        O  0.10888728  0.13951406  0.51232207    -0.80100
O490        O  0.48785974  0.07368286  0.71959210    -0.77600
C491        C  0.04142247  0.13064527  0.63881937     0.83400
O492        O  0.08001288  0.05280664  0.76481448    -0.78700
O493        O  0.09416184  0.18636454  0.72636918    -0.80200
O494        O  0.49540398  0.19866994  0.76571573    -0.80000
O495        O  0.47216519  0.10953365  0.76684303    -0.78600
Zn496      Zn  0.02783649  0.08836382  0.70958904     1.55700
O497        O  0.02704554  0.21866206  0.72418367    -0.80000
Cd498      Cd  0.00727536  0.14393194  0.77562960     1.59700
Cd499      Cd  0.07239213  0.10992921  0.77404587     1.59600
O500        O  0.01887215  0.14063510  0.83131417    -0.80000
O501        O  0.03996838  0.12837429  0.74300384    -1.90500
Cd502      Cd  0.05263141  0.17239648  0.71340565     1.59900
O503        O  0.06307403  0.11805188  0.83045903    -0.80000
O504        O  0.05026644  0.15981212  0.65639978    -0.78600
C505        C  0.06774633  0.03014988  0.74206026     0.83900
C506        C  0.46879128  0.08271308  0.74317905     0.83600
O507        O  0.03228834  0.10189975  0.65559875    -0.77600
C508        C  0.00547164  0.22416682  0.74503178     0.84400
O509        O  0.04879002  0.04106115  0.71950480    -0.77700
C510        C  0.04125231  0.13002826  0.84795769     0.84500
C511        C  0.11353933  0.16968575  0.74453574     0.84800
O512        O  0.10887506  0.13960555  0.76231076    -0.80100
C513        C  0.35488006  0.79980622  0.99633236     0.04000
C514        C  0.35080401  0.76063291  0.49717934    -0.12100
C515        C  0.32335928  0.74575897  0.49748165     0.01500
C516        C  0.30013112  0.77006133  0.49640126    -0.10700
C517        C  0.30382719  0.80894947  0.99528532     0.04000
C518        C  0.33122964  0.82388468  0.99552727    -0.10100
H519        H  0.36883426  0.74187181  0.49778408     0.09600
H520        H  0.27887206  0.75855364  0.49639481     0.07100
H521        H  0.33411440  0.85402630  0.99490690     0.07000
C522        C  0.35486504  0.79991037  0.24627151     0.04000
C523        C  0.33121563  0.82398780  0.24547096    -0.12100
C524        C  0.30381504  0.80905182  0.24521573     0.01500
C525        C  0.30012020  0.77016078  0.24630796    -0.10700
C526        C  0.32334942  0.74585986  0.24738239     0.04000
C527        C  0.35079258  0.76073626  0.24709792    -0.10100
H528        H  0.33410010  0.85413043  0.24486807     0.09600
H529        H  0.27886228  0.75864971  0.24629835     0.07100
H530        H  0.36882404  0.74197743  0.24770605     0.07000
O531        O  0.23787496  0.66166413  0.02136800    -0.77600
C532        C  0.29142290  0.60469806  0.10214587     0.83400
O533        O  0.33002387  0.68253053  0.47613783    -0.78700
O534        O  0.34417610  0.54898388  0.01460085    -0.80200
O535        O  0.24541931  0.53666660  0.47525692    -0.80000
O536        O  0.22217534  0.62579881  0.47413363    -0.78600
Zn537      Zn  0.27784906  0.64697817  0.03137376     1.55700
O538        O  0.27706252  0.51667437  0.01678250    -0.80000
Cd539      Cd  0.25728651  0.59140457  0.46534347     1.59700
Cd540      Cd  0.32240267  0.62540737  0.46690934     1.59600
O541        O  0.26887628  0.59470327  0.40965692    -0.80000
O542        O  0.28998086  0.60696480  0.49796096    -1.90500
Cd543      Cd  0.30264320  0.56294502  0.02756167     1.59900
O544        O  0.31307860  0.61728481  0.41049754    -0.80000
O545        O  0.30026978  0.57553090  0.08456737    -0.78600
C546        C  0.31776077  0.70518780  0.49889648     0.83900
C547        C  0.21880445  0.65262770  0.49778896     0.83600
O548        O  0.28229174  0.63344326  0.08536456    -0.77600
C549        C  0.25548884  0.51116909  0.49593684     0.84400
O550        O  0.29880654  0.69427786  0.02145798    -0.77700
C551        C  0.29125409  0.60531036  0.39300599     0.84500
C552        C  0.36355265  0.56565838  0.49642618     0.84800
O553        O  0.35888681  0.59573209  0.47864145    -0.80100
O554        O  0.23788209  0.66178279  0.27144281    -0.77600
C555        C  0.29145030  0.60476169  0.35215393     0.83400
O556        O  0.32999292  0.68262694  0.22603453    -0.78700
O557        O  0.34415668  0.54908549  0.26459816    -0.80200
O558        O  0.24539035  0.53680958  0.22528766    -0.80000
O559        O  0.22216938  0.62594426  0.22419352    -0.78600
Zn560      Zn  0.27787381  0.64709674  0.28139669     1.55700
O561        O  0.27705486  0.51679320  0.26677012    -0.80000
Cd562      Cd  0.25726644  0.59154120  0.21536507     1.59700
Cd563      Cd  0.32238818  0.62548653  0.21687172     1.59600
O564        O  0.26883313  0.59479265  0.15966683    -0.80000
O565        O  0.28997464  0.60708426  0.24796048    -1.90500
Cd566      Cd  0.30263014  0.56305391  0.27754758     1.59900
O567        O  0.31307088  0.61724947  0.16047003    -0.80000
O568        O  0.30025039  0.57558703  0.33455080    -0.78600
C569        C  0.31775455  0.70528967  0.24881370     0.83900
C570        C  0.21880241  0.65275468  0.24787047     0.83600
O571        O  0.28236002  0.63354649  0.33539627    -0.77600
C572        C  0.25546939  0.51130104  0.24594579     0.84400
O573        O  0.29882919  0.69438622  0.27142148    -0.77700
C574        C  0.29122943  0.60530230  0.14299754     0.84500
C575        C  0.36353676  0.56575966  0.24643244     0.84800
O576        O  0.35887544  0.59583292  0.22864397    -0.80100
C577        C  0.14235394  0.68546883  0.99488786     0.04000
C578        C  0.14640272  0.72466126  0.99427491    -0.12100
C579        C  0.17384110  0.73957884  0.99429956     0.01500
C580        C  0.19707882  0.71529663  0.99550010    -0.10700
C581        C  0.19340588  0.67639046  0.99635206     0.04000
C582        C  0.16601791  0.66142216  0.99579113    -0.10100
H583        H  0.12836145  0.74339715  0.99354963     0.09600
H584        H  0.21832927  0.72683425  0.99571355     0.07100
H585        H  0.16315403  0.63126946  0.99620822     0.07000
C586        C  0.14234209  0.68557510  0.24492336     0.04000
C587        C  0.14638708  0.72476710  0.24432078    -0.12100
C588        C  0.17382358  0.73968796  0.24438104     0.01500
C589        C  0.19706421  0.71541511  0.24562238    -0.10700
C590        C  0.19339736  0.67650923  0.24645553     0.04000
C591        C  0.16601029  0.66153371  0.24584751    -0.10100
H592        H  0.12834509  0.74349995  0.24356984     0.09600
H593        H  0.21831246  0.72695970  0.24586051     0.07100
H594        H  0.16315028  0.63137954  0.24624245     0.07000
O595        O  0.21484841  0.85175853  0.40615194    -0.77600
C596        C  0.27843442  0.83271420  0.49380329     0.83400
O597        O  0.16716113  0.80285939  0.01555722    -0.78700
O598        O  0.22839876  0.89055192  0.08187889    -0.80200
O599        O  0.22020750  0.96869044  0.47482047    -0.80000
O600        O  0.19720302  0.90984772  0.40696849    -0.78600
Zn601      Zn  0.21936212  0.83830053  0.46020947     1.55700
O602        O  0.25181715  0.94869722  0.01638324    -0.80000
Cd603      Cd  0.19470632  0.92238191  0.46393123     1.59700
Cd604      Cd  0.17479846  0.86002105  0.02465103     1.59600
O605        O  0.15312529  0.93624734  0.47653961    -0.80000
O606        O  0.20726525  0.87836146  0.49359358    -1.90500
Cd607      Cd  0.23995655  0.89393328  0.02621286     1.59900
O608        O  0.13833148  0.88966214  0.01265487    -0.80000
O609        O  0.27506699  0.85956634  0.01742863    -0.78600
C610        C  0.17943787  0.78015681  0.49285312     0.83900
C611        C  0.20586754  0.88060019  0.38937965     0.83600
O612        O  0.25936050  0.82364438  0.47023426    -0.77600
C613        C  0.24175671  0.97420204  0.49570540     0.84400
O614        O  0.19840189  0.79102972  0.47028544    -0.77700
C615        C  0.13369978  0.91961963  0.49465931     0.84500
C616        C  0.20600105  0.88005459  0.09854514     0.84800
O617        O  0.18412089  0.86822395  0.08107278    -0.80100
O618        O  0.21479947  0.85179494  0.15618495    -0.77600
C619        C  0.27842412  0.83281992  0.24375320     0.83400
O620        O  0.16712983  0.80298118  0.26557339    -0.80300
O621        O  0.22843065  0.89057034  0.33186495    -0.80200
O622        O  0.22020815  0.96880545  0.22479787    -0.80000
O623        O  0.19720078  0.90991065  0.15695735    -0.78600
Zn624      Zn  0.21933391  0.83837705  0.21023260     1.55700
O625        O  0.25179376  0.94883563  0.26640498    -0.80000
Cd626      Cd  0.19470778  0.92248745  0.21391289     1.59700
Cd627      Cd  0.17479151  0.86013443  0.27463229     1.59600
O628        O  0.15312110  0.93635337  0.22650492    -0.80000
O629        O  0.20726358  0.87847072  0.24358536    -1.90500
Cd630      Cd  0.23996525  0.89404684  0.27619057     1.59900
O631        O  0.13832285  0.88977435  0.26262387    -0.80000
O632        O  0.27508915  0.85971554  0.26733829    -0.78600
C633        C  0.17941670  0.78026043  0.24290179     0.83900
C634        C  0.20583590  0.88063208  0.13939294     0.83600
O635        O  0.25932195  0.82371442  0.22024046    -0.77600
C636        C  0.24174115  0.97433180  0.24570934     0.84400
O637        O  0.19838778  0.79111437  0.22033875    -0.77700
C638        C  0.13369115  0.91972571  0.24461760     0.84500
C639        C  0.20603144  0.88006765  0.34852815     0.84800
O640        O  0.18413769  0.86829080  0.33104980    -0.80100
C641        C  0.39235601  0.54977112  0.49604155     0.04000
C642        C  0.41602383  0.57381356  0.49512085    -0.12100
C643        C  0.44341130  0.55883886  0.49451873     0.01500
C644        C  0.44707864  0.51993307  0.49535405    -0.10700
C645        C  0.42383828  0.99565933  0.49659069     0.04000
C646        C  0.39640165  0.51057939  0.49664547    -0.10100
H647        H  0.41316310  0.60396755  0.49472377     0.09600
H648        H  0.46832711  0.50838920  0.49511924     0.07100
H649        H  0.37835967  0.99184593  0.49739292     0.07000
C650        C  0.39233950  0.54987338  0.24607139     0.04000
C651        C  0.41600403  0.57391980  0.24517244    -0.12100
C652        C  0.44339193  0.55895106  0.24461395     0.01500
C653        C  0.44706415  0.52004467  0.24546347    -0.10700
C654        C  0.42382592  0.99576247  0.24665980     0.04000
C655        C  0.39638778  0.51068069  0.24668219    -0.10100
H656        H  0.41314070  0.60407267  0.24475678     0.09600
H657        H  0.46831451  0.50850685  0.24525113     0.07100
H658        H  0.37834613  0.99194493  0.24740457     0.07000
O659        O  0.46480489  0.88354621  0.08477636    -0.77600
C660        C  0.02843751  0.90252387  0.49720141     0.83400
O661        O  0.41714083  0.93236643  0.47540029    -0.78700
O662        O  0.47843414  0.84477543  0.40908837    -0.80200
O663        O  0.47022497  0.76654281  0.01616107    -0.80000
O664        O  0.44720425  0.82543148  0.08400036    -0.78600
Zn665      Zn  0.46934724  0.89696543  0.03072907     1.55700
O666        O  0.00180855  0.78651222  0.47454691    -0.80000
Cd667      Cd  0.44471955  0.81285593  0.02704480     1.59700
Cd668      Cd  0.42480210  0.87521388  0.46633775     1.59600
O669        O  0.40313531  0.79898305  0.01445027    -0.80000
O670        O  0.45727614  0.85687470  0.49737462    -1.90500
Cd671      Cd  0.48997612  0.84130088  0.46476070     1.59900
O672        O  0.38833467  0.84557266  0.47834901    -0.80000
O673        O  0.02509925  0.87563619  0.47360809    -0.78600
C674        C  0.42943136  0.95508654  0.49806735     0.83900
C675        C  0.45583759  0.85470920  0.10156653     0.83600
O676        O  0.00933764  0.91162325  0.02072225    -0.77600
C677        C  0.49175804  0.76101690  0.49524698     0.84400
O678        O  0.44840469  0.94423115  0.02062401    -0.77700
C679        C  0.38370440  0.81561484  0.49634572     0.84500
C680        C  0.45603272  0.85527880  0.39243286     0.84800
O681        O  0.43414206  0.86705812  0.40991869    -0.80100
O682        O  0.46484009  0.88358561  0.33480463    -0.77600
C683        C  0.02842042  0.90262262  0.24714930     0.83400
O684        O  0.41714749  0.93248130  0.22540122    -0.78700
O685        O  0.47839160  0.84478346  0.15908217    -0.80200
O686        O  0.47018816  0.76664711  0.26614644    -0.80000
O687        O  0.44719282  0.82549755  0.33399675    -0.78600
Zn688      Zn  0.46934634  0.89704144  0.28074580     1.55700
O689        O  0.00180019  0.78663680  0.22458120    -0.80000
Cd690      Cd  0.44468984  0.81296031  0.27703471     1.59700
Cd691      Cd  0.42478665  0.87531901  0.21630697     1.59600
O692        O  0.40310771  0.79909925  0.26443153    -0.80000
O693        O  0.45725031  0.85697779  0.24736628    -1.90500
Cd694      Cd  0.48994369  0.84140130  0.21474837     1.59900
O695        O  0.38831966  0.84567553  0.22830204    -0.80000
O696        O  0.02505637  0.87576443  0.22353029    -0.78600
C697        C  0.42942235  0.95518403  0.24810558     0.83900
C698        C  0.45586177  0.85474474  0.35158136     0.83600
O699        O  0.00934310  0.91169812  0.27071346    -0.77600
C700        C  0.49173840  0.76113354  0.24526115     0.84400
O701        O  0.44838488  0.94431111  0.27067296    -0.77700
C702        C  0.38368517  0.81572278  0.24630478     0.84500
C703        C  0.45599702  0.85528499  0.14241431     0.84800
O704        O  0.43411553  0.86711796  0.15988511    -0.80100
C705        C  0.10487964  0.93543240  0.49469176     0.04000
C706        C  0.08122977  0.91135502  0.49548755    -0.12100
C707        C  0.05382926  0.92629130  0.49574009     0.01500
C708        C  0.05013506  0.96518255  0.49465030    -0.10700
C709        C  0.07336465  0.98948366  0.49358064     0.04000
C710        C  0.10080761  0.97460679  0.49386773    -0.10100
H711        H  0.08411379  0.88121228  0.49608897     0.09600
H712        H  0.02887719  0.97669365  0.49465863     0.07100
H713        H  0.11883938  0.99336558  0.49326296     0.07000
C714        C  0.10486623  0.93553223  0.24462826     0.04000
C715        C  0.10078960  0.97470529  0.24378009    -0.12100
C716        C  0.07334479  0.98957845  0.24347271     0.01500
C717        C  0.05011692  0.96527521  0.24454841    -0.10700
C718        C  0.05381339  0.92638710  0.24566614     0.04000
C719        C  0.08121620  0.91145274  0.24542994    -0.10100
H720        H  0.11881982  0.99346697  0.24317862     0.09600
H721        H  0.02885773  0.97678222  0.24455159     0.07100
H722        H  0.08410164  0.88131130  0.24605226     0.07000
O723        O  0.48789916  0.57355997  0.46953425    -0.77600
C724        C  0.04145532  0.63057872  0.38880962     0.83400
O725        O  0.08000678  0.55271712  0.01493002    -0.78700
O726        O  0.09417388  0.68625318  0.47635455    -0.80200
O727        O  0.49540721  0.69854097  0.01567305    -0.80000
O728        O  0.47218047  0.60940919  0.01677342    -0.78600
Zn729      Zn  0.02788917  0.58824648  0.45957250     1.55700
O730        O  0.02707382  0.71855413  0.47418785    -0.80000
Cd731      Cd  0.00727955  0.64380886  0.02559879     1.59700
Cd732      Cd  0.07240024  0.60985817  0.02409410     1.59600
O733        O  0.01884128  0.64055686  0.08129701    -0.80000
O734        O  0.03998947  0.62826145  0.49300421    -1.90500
Cd735      Cd  0.05264621  0.67228896  0.46341095     1.59900
O736        O  0.06307707  0.61809302  0.08049632    -0.80000
O737        O  0.05025988  0.65975306  0.40640840    -0.78600
C738        C  0.06776990  0.53005430  0.49215069     0.83900
C739        C  0.46881647  0.58259332  0.49310244     0.83600
O740        O  0.03236762  0.60179471  0.40557178    -0.77600
C741        C  0.00548743  0.72404816  0.49501277     0.84400
O742        O  0.04884573  0.54095796  0.46954377    -0.77700
C743        C  0.04123452  0.63004283  0.09796761     0.84500
C744        C  0.11355121  0.66958291  0.49452663     0.84800
O745        O  0.10888736  0.63951417  0.01232213    -0.80100
O746        O  0.48785977  0.57368297  0.21959203    -0.77600
C747        C  0.04142244  0.63064531  0.13881937     0.83400
O748        O  0.08001284  0.55280660  0.26481446    -0.78700
O749        O  0.09416183  0.68636452  0.22636921    -0.80200
O750        O  0.49540404  0.69867004  0.26571592    -0.80000
O751        O  0.47216531  0.60953369  0.26684305    -0.78600
Zn752      Zn  0.02783644  0.58836394  0.20958902     1.55700
O753        O  0.02704544  0.71866211  0.22418363    -0.80000
Cd754      Cd  0.00727530  0.64393203  0.27562961     1.59700
Cd755      Cd  0.07239205  0.60992917  0.27404584     1.59600
O756        O  0.01887205  0.64063502  0.33131415    -0.80000
O757        O  0.03996832  0.62837440  0.24300386    -1.90500
Cd758      Cd  0.05263135  0.67239659  0.21340574     1.59900
O759        O  0.06307399  0.61805198  0.33045897    -0.80000
O760        O  0.05026640  0.65981215  0.15639983    -0.78600
C761        C  0.06774631  0.53014985  0.24206021     0.83900
C762        C  0.46879134  0.58271316  0.24317902     0.83600
O763        O  0.03228824  0.60189981  0.15559870    -0.77600
C764        C  0.00547160  0.72416688  0.24503185     0.84400
O765        O  0.04878999  0.54106115  0.21950477    -0.77700
C766        C  0.04125225  0.63002827  0.34795765     0.84500
C767        C  0.11353931  0.66968569  0.24453576     0.84800
O768        O  0.10887501  0.63960547  0.26231073    -0.80100
C769        C  0.35488003  0.79980622  0.49633233     0.04000
C770        C  0.35080406  0.76063292  0.99717937    -0.12100
C771        C  0.32335934  0.74575897  0.99748170     0.01500
C772        C  0.30013117  0.77006129  0.99640125    -0.10700
C773        C  0.30382717  0.80894953  0.49528542     0.04000
C774        C  0.33122963  0.82388469  0.49552728    -0.10100
H775        H  0.36883434  0.74187183  0.99778412     0.09600
H776        H  0.27887211  0.75855354  0.99639485     0.07100
H777        H  0.33411443  0.85402633  0.49490688     0.07000
C778        C  0.35486506  0.79991036  0.74627156     0.04000
C779        C  0.33121568  0.82398782  0.74547098    -0.12100
C780        C  0.30381508  0.80905185  0.74521568     0.01500
C781        C  0.30012023  0.77016081  0.74630794    -0.10700
C782        C  0.32334942  0.74585985  0.74738233     0.04000
C783        C  0.35079259  0.76073624  0.74709791    -0.10100
H784        H  0.33410020  0.85413044  0.74486809     0.09600
H785        H  0.27886229  0.75864979  0.74629839     0.07100
H786        H  0.36882404  0.74197744  0.74770608     0.07000
O787        O  0.23787497  0.66166426  0.52136807    -0.77600
C788        C  0.29142291  0.60469805  0.60214590     0.83400
O789        O  0.33002386  0.68253060  0.97613780    -0.78700
O790        O  0.34417617  0.54898375  0.51460096    -0.80200
O791        O  0.24541925  0.53666659  0.97525694    -0.80000
O792        O  0.22217534  0.62579880  0.97413353    -0.78600
Zn793      Zn  0.27784909  0.64697821  0.53137379     1.55700
O794        O  0.27706254  0.51667437  0.51678254    -0.80000
Cd795      Cd  0.25728648  0.59140462  0.96534349     1.59700
Cd796      Cd  0.32240273  0.62540747  0.96690930     1.59600
O797        O  0.26887631  0.59470335  0.90965696    -0.80000
O798        O  0.28998087  0.60696489  0.99796091    -1.90500
Cd799      Cd  0.30264328  0.56294493  0.52756170     1.59900
O800        O  0.31307864  0.61728489  0.91049745    -0.80000
O801        O  0.30026979  0.57553089  0.58456739    -0.78600
C802        C  0.31776080  0.70518783  0.99889652     0.83900
C803        C  0.21880443  0.65262763  0.99778889     0.83600
O804        O  0.28229182  0.63344329  0.58536460    -0.77600
C805        C  0.25548882  0.51116906  0.99593680     0.84400
O806        O  0.29880650  0.69427785  0.52145791    -0.77700
C807        C  0.29125411  0.60531041  0.89300596     0.84500
C808        C  0.36355262  0.56565847  0.99642613     0.84800
O809        O  0.35888686  0.59573222  0.97864143    -0.80100
O810        O  0.23788211  0.66178274  0.77144288    -0.77600
C811        C  0.29145031  0.60476161  0.85215390     0.83400
O812        O  0.32999287  0.68262693  0.72603449    -0.78700
O813        O  0.34415667  0.54908559  0.76459814    -0.80200
O814        O  0.24539041  0.53680961  0.72528770    -0.80000
O815        O  0.22216937  0.62594436  0.72419350    -0.78600
Zn816      Zn  0.27787388  0.64709662  0.78139667     1.55700
O817        O  0.27705494  0.51679316  0.76677014    -0.80000
Cd818      Cd  0.25726641  0.59154129  0.71536511     1.59700
Cd819      Cd  0.32238822  0.62548655  0.71687174     1.59600
O820        O  0.26883304  0.59479275  0.65966684    -0.80000
O821        O  0.28997470  0.60708418  0.74796048    -1.90500
Cd822      Cd  0.30263018  0.56305385  0.77754763     1.59900
O823        O  0.31307086  0.61724935  0.66047009    -0.80000
O824        O  0.30025043  0.57558692  0.83455084    -0.78600
C825        C  0.31775453  0.70528964  0.74881368     0.83900
C826        C  0.21880240  0.65275471  0.74787052     0.83600
O827        O  0.28236006  0.63354638  0.83539617    -0.77600
C828        C  0.25546946  0.51130104  0.74594580     0.84400
O829        O  0.29882923  0.69438618  0.77142156    -0.77700
C830        C  0.29122938  0.60530227  0.64299758     0.84500
C831        C  0.36353677  0.56575976  0.74643247     0.84800
O832        O  0.35887548  0.59583304  0.72864403    -0.80100
C833        C  0.14235395  0.68546879  0.49488790     0.04000
C834        C  0.14640274  0.72466121  0.49427487    -0.12100
C835        C  0.17384112  0.73957882  0.49429959     0.01500
C836        C  0.19707884  0.71529668  0.49550021    -0.10700
C837        C  0.19340590  0.67639052  0.49635213     0.04000
C838        C  0.16601793  0.66142219  0.49579124    -0.10100
H839        H  0.12836146  0.74339707  0.49354951     0.09600
H840        H  0.21832932  0.72683435  0.49571374     0.07100
H841        H  0.16315408  0.63126945  0.49620842     0.07000
C842        C  0.14234207  0.68557513  0.74492328     0.04000
C843        C  0.14638703  0.72476714  0.74432076    -0.12100
C844        C  0.17382351  0.73968801  0.74438109     0.01500
C845        C  0.19706414  0.71541515  0.74562243    -0.10700
C846        C  0.19339733  0.67650926  0.74645561     0.04000
C847        C  0.16601026  0.66153375  0.74584749    -0.10100
H848        H  0.12834503  0.74349998  0.74356987     0.09600
H849        H  0.21831242  0.72695975  0.74586055     0.07100
H850        H  0.16315021  0.63137953  0.74624248     0.07000
O851        O  0.21484848  0.85175856  0.90615195    -0.77600
C852        C  0.27843440  0.83271409  0.99380321     0.83400
O853        O  0.16716117  0.80285931  0.51555728    -0.78700
O854        O  0.22839881  0.89055203  0.58187891    -0.80200
O855        O  0.22020743  0.96869038  0.97482051    -0.80000
O856        O  0.19720298  0.90984769  0.90696846    -0.78600
Zn857      Zn  0.21936218  0.83830057  0.96020948     1.55700
O858        O  0.25181712  0.94869733  0.51638336    -0.80000
Cd859      Cd  0.19470625  0.92238192  0.96393121     1.59700
Cd860      Cd  0.17479842  0.86002101  0.52465105     1.59600
O861        O  0.15312528  0.93624734  0.97653964    -0.80000
O862        O  0.20726522  0.87836147  0.99359354    -1.90500
Cd863      Cd  0.23995661  0.89393339  0.52621290     1.59900
O864        O  0.13833145  0.88966218  0.51265488    -0.80000
O865        O  0.27506705  0.85956649  0.51742869    -0.78600
C866        C  0.17943788  0.78015686  0.99285313     0.83900
C867        C  0.20586759  0.88060020  0.88937964     0.83600
O868        O  0.25936050  0.82364427  0.97023416    -0.77600
C869        C  0.24175667  0.97420197  0.99570536     0.84400
O870        O  0.19840195  0.79102975  0.97028553    -0.77700
C871        C  0.13369979  0.91961961  0.99465934     0.84500
C872        C  0.20600110  0.88005466  0.59854514     0.84800
O873        O  0.18412093  0.86822404  0.58107278    -0.80100
O874        O  0.21479950  0.85179500  0.65618494    -0.77600
C875        C  0.27842412  0.83281993  0.74375316     0.83400
O876        O  0.16712975  0.80298128  0.76557344    -0.80300
O877        O  0.22843073  0.89057045  0.83186499    -0.80200
O878        O  0.22020809  0.96880547  0.72479796    -0.80000
O879        O  0.19720071  0.90991066  0.65695732    -0.78600
Zn880      Zn  0.21933383  0.83837700  0.71023264     1.55700
O881        O  0.25179379  0.94883562  0.76640491    -0.80000
Cd882      Cd  0.19470771  0.92248743  0.71391288     1.59700
Cd883      Cd  0.17479155  0.86013452  0.77463234     1.59600
O884        O  0.15312108  0.93635339  0.72650500    -0.80000
O885        O  0.20726355  0.87847075  0.74358536    -1.90500
Cd886      Cd  0.23996521  0.89404689  0.77619058     1.59900
O887        O  0.13832288  0.88977429  0.76262386    -0.80000
O888        O  0.27508914  0.85971556  0.76733824    -0.78600
C889        C  0.17941659  0.78026051  0.74290184     0.83900
C890        C  0.20583593  0.88063213  0.63939292     0.83600
O891        O  0.25932191  0.82371436  0.72024050    -0.77600
C892        C  0.24174114  0.97433180  0.74570934     0.84400
O893        O  0.19838765  0.79111442  0.72033877    -0.77700
C894        C  0.13369114  0.91972565  0.74461763     0.84500
C895        C  0.20603153  0.88006769  0.84852816     0.84800
O896        O  0.18413778  0.86829090  0.83104980    -0.80100
C897        C  0.39235597  0.54977119  0.99604155     0.04000
C898        C  0.41602378  0.57381361  0.99512088    -0.12100
C899        C  0.44341124  0.55883890  0.99451875     0.01500
C900        C  0.44707860  0.51993312  0.99535410    -0.10700
C901        C  0.42383823  0.99565933  0.99659069     0.04000
C902        C  0.39640161  0.51057943  0.99664547    -0.10100
H903        H  0.41316307  0.60396764  0.99472380     0.09600
H904        H  0.46832705  0.50838929  0.99511928     0.07100
H905        H  0.37835962  0.99184601  0.99739285     0.07000
C906        C  0.39233948  0.54987340  0.74607144     0.04000
C907        C  0.41600402  0.57391979  0.74517248    -0.12100
C908        C  0.44339190  0.55895098  0.74461398     0.01500
C909        C  0.44706411  0.52004461  0.74546349    -0.10700
C910        C  0.42382592  0.99576245  0.74665984     0.04000
C911        C  0.39638773  0.51068071  0.74668222    -0.10100
H912        H  0.41314073  0.60407261  0.74475681     0.09600
H913        H  0.46831448  0.50850677  0.74525115     0.07100
H914        H  0.37834611  0.99194493  0.74740459     0.07000
O915        O  0.46480490  0.88354617  0.58477626    -0.77600
C916        C  0.02843751  0.90252380  0.99720143     0.83400
O917        O  0.41714075  0.93236639  0.97540036    -0.78700
O918        O  0.47843408  0.84477554  0.90908844    -0.80200
O919        O  0.47022497  0.76654283  0.51616104    -0.80000
O920        O  0.44720430  0.82543143  0.58400030    -0.78600
Zn921      Zn  0.46934719  0.89696544  0.53072894     1.55700
O922        O  0.00180857  0.78651220  0.97454698    -0.80000
Cd923      Cd  0.44471956  0.81285586  0.52704469     1.59700
Cd924      Cd  0.42480204  0.87521384  0.96633780     1.59600
O925        O  0.40313529  0.79898299  0.51445025    -0.80000
O926        O  0.45727613  0.85687476  0.99737472    -1.90500
Cd927      Cd  0.48997608  0.84130091  0.96476074     1.59900
O928        O  0.38833463  0.84557269  0.97834905    -0.80000
O929        O  0.02509929  0.87563608  0.97360814    -0.78600
C930        C  0.42943132  0.95508653  0.99806737     0.83900
C931        C  0.45583760  0.85470916  0.60156647     0.83600
O932        O  0.00933766  0.91162333  0.52072228    -0.77600
C933        C  0.49175806  0.76101686  0.99524700     0.84400
O934        O  0.44840469  0.94423113  0.52062400    -0.77700
C935        C  0.38370440  0.81561488  0.99634575     0.84500
C936        C  0.45603267  0.85527889  0.89243289     0.84800
O937        O  0.43414199  0.86705819  0.90991869    -0.80100
O938        O  0.46484014  0.88358559  0.83480458    -0.77600
C939        C  0.02842035  0.90262272  0.74714934     0.83400
O940        O  0.41714751  0.93248133  0.72540114    -0.78700
O941        O  0.47839160  0.84478340  0.65908215    -0.80200
O942        O  0.47018814  0.76664711  0.76614632    -0.80000
O943        O  0.44719281  0.82549755  0.83399680    -0.78600
Zn944      Zn  0.46934629  0.89704147  0.78074570     1.55700
O945        O  0.00180032  0.78663687  0.72458126    -0.80000
Cd946      Cd  0.44468983  0.81296033  0.77703472     1.59700
Cd947      Cd  0.42478670  0.87531899  0.71630699     1.59600
O948        O  0.40310775  0.79909921  0.76443149    -0.80000
O949        O  0.45725036  0.85697776  0.74736626    -1.90500
Cd950      Cd  0.48994377  0.84140136  0.71474837     1.59900
O951        O  0.38831968  0.84567555  0.72830213    -0.80000
O952        O  0.02505630  0.87576455  0.72353031    -0.78600
C953        C  0.42942234  0.95518404  0.74810553     0.83900
C954        C  0.45586178  0.85474476  0.85158137     0.83600
O955        O  0.00934301  0.91169822  0.77071347    -0.77600
C956        C  0.49173845  0.76113357  0.74526112     0.84400
O957        O  0.44838485  0.94431110  0.77067289    -0.77700
C958        C  0.38368520  0.81572277  0.74630481     0.84500
C959        C  0.45599704  0.85528500  0.64241429     0.84800
O960        O  0.43411559  0.86711807  0.65988513    -0.80100
C961        C  0.10487965  0.93543240  0.99469181     0.04000
C962        C  0.08122978  0.91135501  0.99548759    -0.12100
C963        C  0.05382926  0.92629127  0.99574014     0.01500
C964        C  0.05013505  0.96518255  0.99465034    -0.10700
C965        C  0.07336466  0.98948367  0.99358067     0.04000
C966        C  0.10080761  0.97460680  0.99386773    -0.10100
H967        H  0.08411384  0.88121227  0.99608901     0.09600
H968        H  0.02887721  0.97669364  0.99465866     0.07100
H969        H  0.11883940  0.99336557  0.99326291     0.07000
C970        C  0.10486623  0.93553216  0.74462829     0.04000
C971        C  0.10078962  0.97470521  0.74378013    -0.12100
C972        C  0.07334483  0.98957844  0.74347273     0.01500
C973        C  0.05011695  0.96527521  0.74454845    -0.10700
C974        C  0.05381337  0.92638711  0.74566620     0.04000
C975        C  0.08121617  0.91145269  0.74542998    -0.10100
H976        H  0.11881989  0.99346690  0.74317867     0.09600
H977        H  0.02885775  0.97678226  0.74455163     0.07100
H978        H  0.08410157  0.88131124  0.74605230     0.07000
O979        O  0.48789914  0.57355985  0.96953428    -0.77600
C980        C  0.04145531  0.63057872  0.88880964     0.83400
O981        O  0.08000667  0.55271703  0.51493005    -0.78700
O982        O  0.09417387  0.68625313  0.97635453    -0.80200
O983        O  0.49540723  0.69854108  0.51567311    -0.80000
O984        O  0.47218046  0.60940925  0.51677341    -0.78600
Zn985      Zn  0.02788913  0.58824643  0.95957252     1.55700
O986        O  0.02707379  0.71855404  0.97418787    -0.80000
Cd987      Cd  0.00727953  0.64380893  0.52559881     1.59700
Cd988      Cd  0.07240017  0.60985807  0.52409413     1.59600
O989        O  0.01884128  0.64055673  0.58129704    -0.80000
O990        O  0.03998946  0.62826140  0.99300421    -1.90500
Cd991      Cd  0.05264616  0.67228888  0.96341097     1.59900
O992        O  0.06307713  0.61809307  0.58049634    -0.80000
O993        O  0.05025988  0.65975304  0.90640844    -0.78600
C994        C  0.06776996  0.53005436  0.99215071     0.83900
C995        C  0.46881644  0.58259328  0.99310245     0.83600
O996        O  0.03236754  0.60179476  0.90557180    -0.77600
C997        C  0.00548740  0.72404807  0.99501279     0.84400
O998        O  0.04884578  0.54095802  0.96954381    -0.77700
C999        C  0.04123455  0.63004277  0.59796763     0.84500
C1000       C  0.11355123  0.66958293  0.99452664     0.84800
O1001       O  0.10888727  0.63951411  0.51232207    -0.80100
O1002       O  0.48785974  0.57368287  0.71959207    -0.77600
C1003       C  0.04142250  0.63064524  0.63881937     0.83400
O1004       O  0.08001290  0.55280663  0.76481440    -0.78700
O1005       O  0.09416180  0.68636458  0.72636922    -0.80200
O1006       O  0.49540397  0.69866999  0.76571578    -0.80000
O1007       O  0.47216523  0.60953358  0.76684308    -0.78600
Zn1008     Zn  0.02783649  0.58836386  0.70958904     1.55700
O1009       O  0.02704556  0.71866210  0.72418366    -0.80000
Cd1010     Cd  0.00727537  0.64393194  0.77562960     1.59700
Cd1011     Cd  0.07239213  0.60992911  0.77404575     1.59600
O1012       O  0.01887207  0.64063501  0.83131415    -0.80000
O1013       O  0.03996839  0.62837431  0.74300381    -1.90500
Cd1014     Cd  0.05263140  0.67239651  0.71340564     1.59900
O1015       O  0.06307399  0.61805186  0.83045896    -0.80000
O1016       O  0.05026646  0.65981210  0.65639977    -0.78600
C1017       C  0.06774629  0.53014988  0.74206025     0.83900
C1018       C  0.46879129  0.58271305  0.74317905     0.83600
O1019       O  0.03228836  0.60189973  0.65559875    -0.77600
C1020       C  0.00547166  0.72416686  0.74503179     0.84400
O1021       O  0.04878995  0.54106118  0.71950486    -0.77700
C1022       C  0.04125226  0.63002824  0.84795765     0.84500
C1023       C  0.11353929  0.66968576  0.74453574     0.84800
O1024       O  0.10887504  0.63960554  0.76231072    -0.80100
C1025       C  0.85488007  0.29980623  0.99633237     0.04000
C1026       C  0.85080402  0.26063292  0.49717934    -0.12100
C1027       C  0.82335930  0.24575896  0.49748166     0.01500
C1028       C  0.80013114  0.27006130  0.49640121    -0.10700
C1029       C  0.80382719  0.30894949  0.99528530     0.04000
C1030       C  0.83122965  0.32388468  0.99552727    -0.10100
H1031       H  0.86883430  0.24187183  0.49778409     0.09600
H1032       H  0.77887208  0.25855359  0.49639481     0.07100
H1033       H  0.83411444  0.35402632  0.99490691     0.07000
C1034       C  0.85486506  0.29991035  0.24627151     0.04000
C1035       C  0.83121567  0.32398781  0.24547095    -0.12100
C1036       C  0.80381508  0.30905185  0.24521572     0.01500
C1037       C  0.80012021  0.27016082  0.24630796    -0.10700
C1038       C  0.82334940  0.24585988  0.24738240     0.04000
C1039       C  0.85079258  0.26073624  0.24709792    -0.10100
H1040       H  0.83410017  0.35413045  0.24486807     0.09600
H1041       H  0.77886228  0.25864980  0.24629836     0.07100
H1042       H  0.86882403  0.24197739  0.24770605     0.07000
O1043       O  0.73787492  0.16166406  0.02136801    -0.77600
C1044       C  0.79142293  0.10469808  0.10214587     0.83400
O1045       O  0.83002391  0.18253057  0.47613783    -0.78700
O1046       O  0.84417613  0.04898385  0.01460085    -0.80200
O1047       O  0.74541930  0.03666655  0.47525686    -0.80000
O1048       O  0.72217532  0.12579878  0.47413364    -0.78600
Zn1049     Zn  0.77784906  0.14697814  0.03137377     1.55700
O1050       O  0.77706252  0.01667441  0.01678252    -0.80000
Cd1051     Cd  0.75728643  0.09140456  0.46534346     1.59700
Cd1052     Cd  0.82240269  0.12540747  0.46690933     1.59600
O1053       O  0.76887626  0.09470342  0.40965694    -0.80000
O1054       O  0.78998082  0.10696486  0.49796089    -1.90500
Cd1055     Cd  0.80264324  0.06294501  0.02756167     1.59900
O1056       O  0.81307865  0.11728478  0.41049754    -0.80000
O1057       O  0.80026978  0.07553092  0.08456735    -0.78600
C1058       C  0.81776081  0.20518780  0.49889649     0.83900
C1059       C  0.71880446  0.15262767  0.49778897     0.83600
O1060       O  0.78229180  0.13344330  0.08536459    -0.77600
C1061       C  0.75548883  0.01116908  0.49593683     0.84400
O1062       O  0.79880656  0.19427783  0.02145797    -0.77700
C1063       C  0.79125412  0.10531038  0.39300600     0.84500
C1064       C  0.86355257  0.06565839  0.49642618     0.84800
O1065       O  0.85888678  0.09573212  0.47864145    -0.80100
O1066       O  0.73788211  0.16178276  0.27144286    -0.77600
C1067       C  0.79145033  0.10476166  0.35215394     0.83400
O1068       O  0.82999281  0.18262702  0.22603447    -0.78700
O1069       O  0.84415662  0.04908561  0.26459816    -0.80200
O1070       O  0.74539036  0.03680957  0.22528762    -0.80000
O1071       O  0.72216944  0.12594433  0.22419346    -0.78600
Zn1072     Zn  0.77787383  0.14709670  0.28139669     1.55700
O1073       O  0.77705486  0.01679323  0.26677012    -0.80000
Cd1074     Cd  0.75726647  0.09154119  0.21536506     1.59700
Cd1075     Cd  0.82238818  0.12548663  0.21687171     1.59600
O1076       O  0.76883316  0.09479261  0.15966682    -0.80000
O1077       O  0.78997467  0.10708426  0.24796046    -1.90500
Cd1078     Cd  0.80263012  0.06305394  0.27754759     1.59900
O1079       O  0.81307091  0.11724947  0.16047003    -0.80000
O1080       O  0.80025042  0.07558699  0.33455082    -0.78600
C1081       C  0.81775448  0.20528970  0.24881370     0.83900
C1082       C  0.71880244  0.15275470  0.24787047     0.83600
O1083       O  0.78236005  0.13354645  0.33539626    -0.77600
C1084       C  0.75546940  0.01130104  0.24594577     0.84400
O1085       O  0.79882916  0.19438624  0.27142154    -0.77700
C1086       C  0.79122946  0.10530228  0.14299755     0.84500
C1087       C  0.86353672  0.06575971  0.24643243     0.84800
O1088       O  0.85887543  0.09583300  0.22864395    -0.80100
C1089       C  0.64235393  0.18546887  0.99488784     0.04000
C1090       C  0.64640275  0.22466128  0.99427491    -0.12100
C1091       C  0.67384112  0.23957885  0.99429957     0.01500
C1092       C  0.69707883  0.21529662  0.99550009    -0.10700
C1093       C  0.69340586  0.17639046  0.99635205     0.04000
C1094       C  0.66601788  0.16142218  0.99579112    -0.10100
H1095       H  0.62836147  0.24339721  0.99354963     0.09600
H1096       H  0.71832929  0.22683422  0.99571354     0.07100
H1097       H  0.66315400  0.13126949  0.99620822     0.07000
C1098       C  0.64234210  0.18557506  0.24492336     0.04000
C1099       C  0.64638708  0.22476706  0.24432079    -0.12100
C1100       C  0.67382355  0.23968797  0.24438109     0.01500
C1101       C  0.69706419  0.21541512  0.24562239    -0.10700
C1102       C  0.69339737  0.17650923  0.24645555     0.04000
C1103       C  0.66601031  0.16153369  0.24584751    -0.10100
H1104       H  0.62834505  0.24349991  0.24356984     0.09600
H1105       H  0.71831244  0.22695971  0.24586051     0.07100
H1106       H  0.66315032  0.13137951  0.24624245     0.07000
O1107       O  0.71484844  0.35175850  0.40615194    -0.77600
C1108       C  0.77843441  0.33271417  0.49380325     0.83400
O1109       O  0.66716116  0.30285940  0.01555722    -0.78700
O1110       O  0.72839878  0.39055185  0.08187889    -0.80200
O1111       O  0.72020749  0.46869038  0.47482045    -0.80000
O1112       O  0.69720305  0.40984768  0.40696848    -0.78600
Zn1113     Zn  0.71936214  0.33830061  0.46020947     1.55700
O1114       O  0.75181716  0.44869722  0.01638325    -0.80000
Cd1115     Cd  0.69470633  0.42238188  0.46393122     1.59700
Cd1116     Cd  0.67479847  0.36002107  0.02465103     1.59600
O1117       O  0.65312530  0.43624731  0.47653960    -0.80000
O1118       O  0.70726524  0.37836148  0.49359357    -1.90500
Cd1119     Cd  0.73995657  0.39393328  0.02621286     1.59900
O1120       O  0.63833153  0.38966224  0.01265487    -0.80000
O1121       O  0.77506703  0.35956643  0.01742855    -0.78600
C1122       C  0.67943786  0.28015682  0.49285313     0.83900
C1123       C  0.70586757  0.38060015  0.38937964     0.83600
O1124       O  0.75936049  0.32364438  0.47023423    -0.77600
C1125       C  0.74175668  0.47420201  0.49570538     0.84400
O1126       O  0.69840191  0.29102975  0.47028551    -0.77700
C1127       C  0.63369977  0.41961965  0.49465931     0.84500
C1128       C  0.70600104  0.38005461  0.09854514     0.84800
O1129       O  0.68412085  0.36822409  0.08107277    -0.80100
O1130       O  0.71479946  0.35179489  0.15618493    -0.77600
C1131       C  0.77842413  0.33281992  0.24375318     0.83400
O1132       O  0.66712976  0.30298128  0.26557330    -0.80300
O1133       O  0.72843068  0.39057031  0.33186495    -0.80200
O1134       O  0.72020808  0.46880549  0.22479792    -0.80000
O1135       O  0.69720079  0.40991061  0.15695736    -0.78600
Zn1136     Zn  0.71933384  0.33837703  0.21023262     1.55700
O1137       O  0.75179376  0.44883563  0.26640493    -0.80000
Cd1138     Cd  0.69470776  0.42248747  0.21391289     1.59700
Cd1139     Cd  0.67479152  0.36013457  0.27463228     1.59600
O1140       O  0.65312107  0.43635345  0.22650496    -0.80000
O1141       O  0.70726359  0.37847080  0.24358536    -1.90500
Cd1142     Cd  0.73996528  0.39404683  0.27619057     1.59900
O1143       O  0.63832284  0.38977438  0.26262384    -0.80000
O1144       O  0.77508917  0.35971552  0.26733829    -0.78600
C1145       C  0.67941666  0.28026046  0.24290181     0.83900
C1146       C  0.70583591  0.38063205  0.13939294     0.83600
O1147       O  0.75932193  0.32371441  0.22024047    -0.77600
C1148       C  0.74174111  0.47433181  0.24570934     0.84400
O1149       O  0.69838777  0.29111434  0.22033881    -0.77700
C1150       C  0.63369112  0.41972573  0.24461758     0.84500
C1151       C  0.70603147  0.38006761  0.34852815     0.84800
O1152       O  0.68413772  0.36829079  0.33104980    -0.80100
C1153       C  0.89235593  0.04977113  0.49604155     0.04000
C1154       C  0.91602372  0.07381362  0.49512085    -0.12100
C1155       C  0.94341120  0.05883894  0.49451873     0.01500
C1156       C  0.94707858  0.01993315  0.49535410    -0.10700
C1157       C  0.92383822  0.49565931  0.49659067     0.04000
C1158       C  0.89640159  0.01057938  0.49664547    -0.10100
H1159       H  0.91316298  0.10396761  0.49472377     0.09600
H1160       H  0.96832702  0.00838936  0.49511933     0.07100
H1161       H  0.87835961  0.49184590  0.49739291     0.07000
C1162       C  0.89233946  0.04987334  0.24607140     0.04000
C1163       C  0.91600399  0.07391974  0.24517246    -0.12100
C1164       C  0.94339189  0.05895101  0.24461398     0.01500
C1165       C  0.94706412  0.02004461  0.24546347    -0.10700
C1166       C  0.92382596  0.49576250  0.24665983     0.04000
C1167       C  0.89638775  0.01068063  0.24668219    -0.10100
H1168       H  0.91314064  0.10407261  0.24475678     0.09600
H1169       H  0.96831450  0.00850678  0.24525114     0.07100
H1170       H  0.87834617  0.49194495  0.24740457     0.07000
O1171       O  0.96480488  0.38354619  0.08477636    -0.77600
C1172       C  0.52843748  0.40252387  0.49720141     0.83400
O1173       O  0.91714085  0.43236638  0.47540031    -0.78700
O1174       O  0.97843415  0.34477561  0.40908840    -0.80200
O1175       O  0.97022489  0.26654274  0.01616105    -0.80000
O1176       O  0.94720424  0.32543144  0.08400036    -0.78600
Zn1177     Zn  0.96934723  0.39696550  0.03072907     1.55700
O1178       O  0.50180858  0.28651219  0.47454692    -0.80000
Cd1179     Cd  0.94471954  0.31285590  0.02704480     1.59700
Cd1180     Cd  0.92480212  0.37521384  0.46633775     1.59600
O1181       O  0.90313532  0.29898301  0.01445027    -0.80000
O1182       O  0.95727619  0.35687473  0.49737459    -1.90500
Cd1183     Cd  0.98997618  0.34130087  0.46476070     1.59900
O1184       O  0.88833469  0.34557265  0.47834902    -0.80000
O1185       O  0.52509927  0.37563615  0.47360812    -0.78600
C1186       C  0.92943135  0.45508653  0.49806735     0.83900
C1187       C  0.95583757  0.35470916  0.10156652     0.83600
O1188       O  0.50933763  0.41162325  0.02072229    -0.77600
C1189       C  0.99175804  0.26101687  0.49524696     0.84400
O1190       O  0.94840470  0.44423119  0.02062401    -0.77700
C1191       C  0.88370442  0.31561484  0.49634573     0.84500
C1192       C  0.95603270  0.35527882  0.39243286     0.84800
O1193       O  0.93414199  0.36705800  0.40991866    -0.80100
O1194       O  0.96484012  0.38358557  0.33480462    -0.77600
C1195       C  0.52842035  0.40262264  0.24714931     0.83400
O1196       O  0.91714752  0.43248139  0.22540119    -0.78700
O1197       O  0.97839161  0.34478342  0.15908215    -0.80200
O1198       O  0.97018819  0.26664711  0.26614640    -0.80000
O1199       O  0.94719284  0.32549751  0.33399676    -0.78600
Zn1200     Zn  0.96934635  0.39704141  0.28074580     1.55700
O1201       O  0.50180022  0.28663681  0.22458121    -0.80000
Cd1202     Cd  0.94468987  0.31296028  0.27703471     1.59700
Cd1203     Cd  0.92478667  0.37531903  0.21630698     1.59600
O1204       O  0.90310775  0.29909921  0.26443153    -0.80000
O1205       O  0.95725034  0.35697775  0.24736627    -1.90500
Cd1206     Cd  0.98994374  0.34140128  0.21474836     1.59900
O1207       O  0.88831969  0.34567550  0.22830204    -0.80000
O1208       O  0.52505624  0.37576453  0.22353021    -0.78600
C1209       C  0.92942239  0.45518409  0.24810557     0.83900
C1210       C  0.95586178  0.35474471  0.35158137     0.83600
O1211       O  0.50934308  0.41169809  0.27071356    -0.77600
C1212       C  0.99173844  0.26113354  0.24526114     0.84400
O1213       O  0.94838490  0.44431115  0.27067297    -0.77700
C1214       C  0.88368520  0.31572274  0.24630477     0.84500
C1215       C  0.95599702  0.35528495  0.14241431     0.84800
O1216       O  0.93411555  0.36711792  0.15988513    -0.80100
C1217       C  0.60487963  0.43543246  0.49469176     0.04000
C1218       C  0.58122976  0.41135507  0.49548756    -0.12100
C1219       C  0.55382923  0.42629133  0.49574012     0.01500
C1220       C  0.55013502  0.46518259  0.49465030    -0.10700
C1221       C  0.57336463  0.48948369  0.49358063     0.04000
C1222       C  0.60080759  0.47460685  0.49386772    -0.10100
H1223       H  0.58411381  0.38121237  0.49608897     0.09600
H1224       H  0.52887719  0.47669368  0.49465863     0.07100
H1225       H  0.61883935  0.49336567  0.49326295     0.07000
C1226       C  0.60486620  0.43553219  0.24462824     0.04000
C1227       C  0.60078958  0.47470523  0.24378009    -0.12100
C1228       C  0.57334479  0.48957841  0.24347269     0.01500
C1229       C  0.55011691  0.46527520  0.24454840    -0.10700
C1230       C  0.55381336  0.42638708  0.24566614     0.04000
C1231       C  0.58121616  0.41145270  0.24542994    -0.10100
H1232       H  0.61881981  0.49346690  0.24317862     0.09600
H1233       H  0.52885773  0.47678223  0.24455159     0.07100
H1234       H  0.58410155  0.38131124  0.24605227     0.07000
O1235       O  0.98789910  0.07355996  0.46953422    -0.77600
C1236       C  0.54145535  0.13057867  0.38880962     0.83400
O1237       O  0.58000666  0.05271707  0.01493008    -0.78700
O1238       O  0.59417391  0.18625313  0.47635455    -0.80200
O1239       O  0.99540720  0.19854094  0.01567304    -0.80000
O1240       O  0.97218047  0.10940916  0.01677348    -0.78600
Zn1241     Zn  0.52788922  0.08824646  0.45957249     1.55700
O1242       O  0.52707384  0.21855408  0.47418788    -0.80000
Cd1243     Cd  0.50727957  0.14380881  0.02559879     1.59700
Cd1244     Cd  0.57240026  0.10985816  0.02409410     1.59600
O1245       O  0.51884128  0.14055679  0.08129701    -0.80000
O1246       O  0.53998951  0.12826141  0.49300421    -1.90500
Cd1247     Cd  0.55264623  0.17228891  0.46341095     1.59900
O1248       O  0.56307714  0.11809317  0.08049631    -0.80000
O1249       O  0.55025991  0.15975301  0.40640840    -0.78600
C1250       C  0.56776991  0.03005429  0.49215069     0.83900
C1251       C  0.96881641  0.08259334  0.49310242     0.83600
O1252       O  0.53236765  0.10179467  0.40557178    -0.77600
C1253       C  0.50548744  0.22404812  0.49501278     0.84400
O1254       O  0.54884576  0.04095797  0.46954377    -0.77700
C1255       C  0.54123455  0.13004285  0.09796761     0.84500
C1256       C  0.61355124  0.16958286  0.49452663     0.84800
O1257       O  0.60888737  0.13951416  0.01232205    -0.80100
O1258       O  0.98785967  0.07368295  0.21959198    -0.77600
C1259       C  0.54142247  0.13064529  0.13881937     0.83400
O1260       O  0.58001286  0.05280664  0.26481443    -0.78700
O1261       O  0.59416185  0.18636447  0.22636921    -0.80200
O1262       O  0.99540404  0.19867007  0.26571598    -0.80000
O1263       O  0.97216526  0.10953364  0.26684307    -0.78600
Zn1264     Zn  0.52783648  0.08836391  0.20958901     1.55700
O1265       O  0.52704545  0.21866208  0.22418365    -0.80000
Cd1266     Cd  0.50727534  0.14393203  0.27562961     1.59700
Cd1267     Cd  0.57239207  0.10992916  0.27404584     1.59600
O1268       O  0.51887208  0.14063498  0.33131415    -0.80000
O1269       O  0.53996835  0.12837437  0.24300386    -1.90500
Cd1270     Cd  0.55263137  0.17239654  0.21340574     1.59900
O1271       O  0.56307402  0.11805194  0.33045897    -0.80000
O1272       O  0.55026644  0.15981211  0.15639984    -0.78600
C1273       C  0.56774632  0.03014988  0.24206021     0.83900
C1274       C  0.96879127  0.08271312  0.24317902     0.83600
O1275       O  0.53228827  0.10189977  0.15559869    -0.77600
C1276       C  0.50547162  0.22416688  0.24503186     0.84400
O1277       O  0.54879000  0.04106116  0.21950476    -0.77700
C1278       C  0.54125228  0.13002822  0.34795765     0.84500
C1279       C  0.61353933  0.16968564  0.24453575     0.84800
O1280       O  0.60887504  0.13960543  0.26231074    -0.80100
C1281       C  0.85488004  0.29980623  0.49633234     0.04000
C1282       C  0.85080408  0.26063292  0.99717937    -0.12100
C1283       C  0.82335936  0.24575896  0.99748170     0.01500
C1284       C  0.80013119  0.27006129  0.99640124    -0.10700
C1285       C  0.80382718  0.30894951  0.49528532     0.04000
C1286       C  0.83122963  0.32388469  0.49552724    -0.10100
H1287       H  0.86883437  0.24187185  0.99778412     0.09600
H1288       H  0.77887214  0.25855353  0.99639484     0.07100
H1289       H  0.83411440  0.35402633  0.49490688     0.07000
C1290       C  0.85486503  0.29991037  0.74627153     0.04000
C1291       C  0.83121566  0.32398783  0.74547098    -0.12100
C1292       C  0.80381507  0.30905185  0.74521565     0.01500
C1293       C  0.80012022  0.27016080  0.74630779    -0.10700
C1294       C  0.82334941  0.24585986  0.74738230     0.04000
C1295       C  0.85079258  0.26073625  0.74709791    -0.10100
H1296       H  0.83410018  0.35413041  0.74486814     0.09600
H1297       H  0.77886228  0.25864976  0.74629813     0.07100
H1298       H  0.86882401  0.24197748  0.74770613     0.07000
O1299       O  0.73787500  0.16166421  0.52136807    -0.77600
C1300       C  0.79142291  0.10469802  0.60214591     0.83400
O1301       O  0.83002386  0.18253055  0.97613779    -0.78700
O1302       O  0.84417609  0.04898381  0.51460096    -0.80200
O1303       O  0.74541926  0.03666656  0.97525689    -0.80000
O1304       O  0.72217528  0.12579873  0.97413353    -0.78600
Zn1305     Zn  0.77784911  0.14697818  0.53137378     1.55700
O1306       O  0.77706249  0.01667443  0.51678261    -0.80000
Cd1307     Cd  0.75728648  0.09140458  0.96534349     1.59700
Cd1308     Cd  0.82240266  0.12540743  0.96690930     1.59600
O1309       O  0.76887634  0.09470332  0.90965695    -0.80000
O1310       O  0.78998085  0.10696484  0.99796094    -1.90500
Cd1311     Cd  0.80264318  0.06294503  0.52756171     1.59900
O1312       O  0.81307865  0.11728486  0.91049746    -0.80000
O1313       O  0.80026979  0.07553087  0.58456741    -0.78600
C1314       C  0.81776083  0.20518780  0.99889652     0.83900
C1315       C  0.71880439  0.15262757  0.99778889     0.83600
O1316       O  0.78229183  0.13344326  0.58536460    -0.77600
C1317       C  0.75548883  0.01116907  0.99593680     0.84400
O1318       O  0.79880654  0.19427781  0.52145791    -0.77700
C1319       C  0.79125412  0.10531042  0.89300595     0.84500
C1320       C  0.86355263  0.06565847  0.99642613     0.84800
O1321       O  0.85888683  0.09573221  0.97864142    -0.80100
O1322       O  0.73788208  0.16178277  0.77144288    -0.77600
C1323       C  0.79145033  0.10476171  0.85215389     0.83400
O1324       O  0.82999290  0.18262696  0.72603446    -0.78700
O1325       O  0.84415669  0.04908555  0.76459815    -0.80200
O1326       O  0.74539044  0.03680960  0.72528770    -0.80000
O1327       O  0.72216939  0.12594432  0.72419351    -0.78600
Zn1328     Zn  0.77787381  0.14709675  0.78139669     1.55700
O1329       O  0.77705495  0.01679312  0.76677015    -0.80000
Cd1330     Cd  0.75726644  0.09154127  0.71536512     1.59700
Cd1331     Cd  0.82238825  0.12548657  0.71687174     1.59600
O1332       O  0.76883302  0.09479270  0.65966684    -0.80000
O1333       O  0.78997471  0.10708427  0.74796051    -1.90500
Cd1334     Cd  0.80263020  0.06305386  0.77754761     1.59900
O1335       O  0.81307085  0.11724931  0.66047009    -0.80000
O1336       O  0.80025046  0.07558705  0.83455079    -0.78600
C1337       C  0.81775455  0.20528966  0.74881367     0.83900
C1338       C  0.71880240  0.15275469  0.74787051     0.83600
O1339       O  0.78236007  0.13354652  0.83539621    -0.77600
C1340       C  0.75546946  0.01130102  0.74594581     0.84400
O1341       O  0.79882924  0.19438621  0.77142154    -0.77700
C1342       C  0.79122937  0.10530223  0.64299759     0.84500
C1343       C  0.86353679  0.06575972  0.74643247     0.84800
O1344       O  0.85887550  0.09583300  0.72864403    -0.80100
C1345       C  0.64235398  0.18546874  0.49488790     0.04000
C1346       C  0.64640276  0.22466117  0.49427487    -0.12100
C1347       C  0.67384114  0.23957879  0.49429959     0.01500
C1348       C  0.69707886  0.21529664  0.49550021    -0.10700
C1349       C  0.69340593  0.17639049  0.49635214     0.04000
C1350       C  0.66601796  0.16142215  0.49579124    -0.10100
H1351       H  0.62836151  0.24339702  0.49354952     0.09600
H1352       H  0.71832934  0.22683431  0.49571374     0.07100
H1353       H  0.66315412  0.13126941  0.49620842     0.07000
C1354       C  0.64234208  0.18557512  0.74492328     0.04000
C1355       C  0.64638702  0.22476714  0.74432076    -0.12100
C1356       C  0.67382351  0.23968800  0.74438108     0.01500
C1357       C  0.69706415  0.21541514  0.74562243    -0.10700
C1358       C  0.69339733  0.17650924  0.74645559     0.04000
C1359       C  0.66601026  0.16153373  0.74584749    -0.10100
H1360       H  0.62834504  0.24349995  0.74356988     0.09600
H1361       H  0.71831240  0.22695973  0.74586056     0.07100
H1362       H  0.66315023  0.13137956  0.74624248     0.07000
O1363       O  0.71484844  0.35175852  0.90615194    -0.77600
C1364       C  0.77843438  0.33271410  0.99380320     0.83400
O1365       O  0.66716110  0.30285934  0.51555722    -0.78700
O1366       O  0.72839880  0.39055199  0.58187895    -0.80200
O1367       O  0.72020746  0.46869039  0.97482049    -0.80000
O1368       O  0.69720296  0.40984765  0.90696846    -0.78600
Zn1369     Zn  0.71936209  0.33830054  0.96020948     1.55700
O1370       O  0.75181712  0.44869730  0.51638336    -0.80000
Cd1371     Cd  0.69470627  0.42238191  0.96393122     1.59700
Cd1372     Cd  0.67479841  0.36002109  0.52465103     1.59600
O1373       O  0.65312529  0.43624747  0.97653964    -0.80000
O1374       O  0.70726523  0.37836145  0.99359355    -1.90500
Cd1375     Cd  0.73995655  0.39393335  0.52621291     1.59900
O1376       O  0.63833142  0.38966220  0.51265488    -0.80000
O1377       O  0.77506705  0.35956644  0.51742868    -0.78600
C1378       C  0.67943790  0.28015685  0.99285315     0.83900
C1379       C  0.70586755  0.38060015  0.88937964     0.83600
O1380       O  0.75936041  0.32364423  0.97023426    -0.77600
C1381       C  0.74175670  0.47420197  0.99570536     0.84400
O1382       O  0.69840195  0.29102974  0.97028552    -0.77700
C1383       C  0.63369981  0.41961971  0.99465933     0.84500
C1384       C  0.70600108  0.38005462  0.59854515     0.84800
O1385       O  0.68412093  0.36822402  0.58107275    -0.80100
O1386       O  0.71479935  0.35179495  0.65618496    -0.77600
C1387       C  0.77842414  0.33281996  0.74375315     0.83400
O1388       O  0.66712975  0.30298124  0.76557343    -0.80300
O1389       O  0.72843069  0.39057035  0.83186499    -0.80200
O1390       O  0.72020812  0.46880553  0.72479791    -0.80000
O1391       O  0.69720072  0.40991069  0.65695732    -0.78600
Zn1392     Zn  0.71933384  0.33837709  0.71023264     1.55700
O1393       O  0.75179372  0.44883562  0.76640497    -0.80000
Cd1394     Cd  0.69470773  0.42248753  0.71391289     1.59700
Cd1395     Cd  0.67479147  0.36013449  0.77463233     1.59600
O1396       O  0.65312108  0.43635343  0.72650502    -0.80000
O1397       O  0.70726351  0.37847080  0.74358539    -1.90500
Cd1398     Cd  0.73996521  0.39404686  0.77619059     1.59900
O1399       O  0.63832285  0.38977432  0.76262385    -0.80000
O1400       O  0.77508920  0.35971563  0.76733818    -0.78600
C1401       C  0.67941661  0.28026049  0.74290183     0.83900
C1402       C  0.70583586  0.38063211  0.63939293     0.83600
O1403       O  0.75932192  0.32371438  0.72024052    -0.77600
C1404       C  0.74174115  0.47433181  0.74570934     0.84400
O1405       O  0.69838769  0.29111444  0.72033879    -0.77700
C1406       C  0.63369114  0.41972569  0.74461763     0.84500
C1407       C  0.70603148  0.38006764  0.84852816     0.84800
O1408       O  0.68413771  0.36829091  0.83104980    -0.80100
C1409       C  0.89235598  0.04977120  0.99604155     0.04000
C1410       C  0.91602381  0.07381361  0.99512088    -0.12100
C1411       C  0.94341126  0.05883889  0.99451874     0.01500
C1412       C  0.94707860  0.01993309  0.99535409    -0.10700
C1413       C  0.92383825  0.49565934  0.99659071     0.04000
C1414       C  0.89640161  0.01057944  0.99664546    -0.10100
H1415       H  0.91316311  0.10396764  0.99472380     0.09600
H1416       H  0.96832703  0.00838925  0.99511928     0.07100
H1417       H  0.87835963  0.49184599  0.99739285     0.07000
C1418       C  0.89233950  0.04987336  0.74607144     0.04000
C1419       C  0.91600403  0.07391978  0.74517249    -0.12100
C1420       C  0.94339191  0.05895098  0.74461401     0.01500
C1421       C  0.94706412  0.02004460  0.74546350    -0.10700
C1422       C  0.92382590  0.49576249  0.74665983     0.04000
C1423       C  0.89638776  0.01068067  0.74668223    -0.10100
H1424       H  0.91314070  0.10407259  0.74475682     0.09600
H1425       H  0.96831450  0.00850676  0.74525116     0.07100
H1426       H  0.87834609  0.49194499  0.74740460     0.07000
O1427       O  0.96480480  0.38354618  0.58477625    -0.77600
C1428       C  0.52843750  0.40252381  0.99720143     0.83400
O1429       O  0.91714079  0.43236642  0.97540033    -0.78700
O1430       O  0.97843410  0.34477550  0.90908842    -0.80200
O1431       O  0.97022496  0.26654284  0.51616101    -0.80000
O1432       O  0.94720434  0.32543136  0.58400032    -0.78600
Zn1433     Zn  0.96934721  0.39696545  0.53072894     1.55700
O1434       O  0.50180857  0.28651218  0.97454697    -0.80000
Cd1435     Cd  0.94471958  0.31285595  0.52704469     1.59700
Cd1436     Cd  0.92480205  0.37521384  0.96633779     1.59600
O1437       O  0.90313531  0.29898299  0.51445026    -0.80000
O1438       O  0.95727611  0.35687477  0.99737473    -1.90500
Cd1439     Cd  0.98997607  0.34130090  0.96476075     1.59900
O1440       O  0.88833466  0.34557267  0.97834905    -0.80000
O1441       O  0.52509925  0.37563614  0.97360808    -0.78600
C1442       C  0.92943134  0.45508656  0.99806737     0.83900
C1443       C  0.95583759  0.35470914  0.60156648     0.83600
O1444       O  0.50933759  0.41162332  0.52072222    -0.77600
C1445       C  0.99175799  0.26101682  0.99524700     0.84400
O1446       O  0.94840472  0.44423119  0.52062400    -0.77700
C1447       C  0.88370443  0.31561485  0.99634575     0.84500
C1448       C  0.95603269  0.35527888  0.89243289     0.84800
O1449       O  0.93414202  0.36705816  0.90991871    -0.80100
O1450       O  0.96484003  0.38358565  0.83480457    -0.77600
C1451       C  0.52842035  0.40262268  0.74714934     0.83400
O1452       O  0.91714750  0.43248138  0.72540116    -0.78700
O1453       O  0.97839166  0.34478354  0.65908215    -0.80200
O1454       O  0.97018816  0.26664705  0.76614634    -0.80000
O1455       O  0.94719286  0.32549752  0.83399680    -0.78600
Zn1456     Zn  0.96934630  0.39704148  0.78074570     1.55700
O1457       O  0.50180030  0.28663684  0.72458126    -0.80000
Cd1458     Cd  0.94468982  0.31296029  0.77703472     1.59700
Cd1459     Cd  0.92478672  0.37531907  0.71630700     1.59600
O1460       O  0.90310769  0.29909923  0.76443153    -0.80000
O1461       O  0.95725037  0.35697775  0.74736626    -1.90500
Cd1462     Cd  0.98994377  0.34140133  0.71474837     1.59900
O1463       O  0.88831967  0.34567558  0.72830212    -0.80000
O1464       O  0.52505630  0.37576451  0.72353032    -0.78600
C1465       C  0.92942233  0.45518409  0.74810554     0.83900
C1466       C  0.95586176  0.35474477  0.85158137     0.83600
O1467       O  0.50934301  0.41169821  0.77071346    -0.77600
C1468       C  0.99173845  0.26113351  0.74526111     0.84400
O1469       O  0.94838486  0.44431116  0.77067289    -0.77700
C1470       C  0.88368516  0.31572279  0.74630481     0.84500
C1471       C  0.95599706  0.35528502  0.64241430     0.84800
O1472       O  0.93411559  0.36711804  0.65988514    -0.80100
C1473       C  0.60487962  0.43543242  0.99469179     0.04000
C1474       C  0.58122977  0.41135503  0.99548760    -0.12100
C1475       C  0.55382923  0.42629127  0.99574016     0.01500
C1476       C  0.55013500  0.46518255  0.99465034    -0.10700
C1477       C  0.57336458  0.48948368  0.99358069     0.04000
C1478       C  0.60080755  0.47460683  0.99386773    -0.10100
H1479       H  0.58411381  0.38121227  0.99608901     0.09600
H1480       H  0.52887712  0.47669364  0.99465865     0.07100
H1481       H  0.61883928  0.49336559  0.99326291     0.07000
C1482       C  0.60486622  0.43553219  0.74462829     0.04000
C1483       C  0.60078959  0.47470523  0.74378013    -0.12100
C1484       C  0.57334480  0.48957844  0.74347272     0.01500
C1485       C  0.55011692  0.46527521  0.74454845    -0.10700
C1486       C  0.55381337  0.42638711  0.74566620     0.04000
C1487       C  0.58121617  0.41145270  0.74542998    -0.10100
H1488       H  0.61881985  0.49346692  0.74317866     0.09600
H1489       H  0.52885774  0.47678223  0.74455163     0.07100
H1490       H  0.58410157  0.38131127  0.74605230     0.07000
O1491       O  0.98789914  0.07355997  0.96953424    -0.77600
C1492       C  0.54145532  0.13057871  0.88880964     0.83400
O1493       O  0.58000670  0.05271703  0.51493005    -0.78700
O1494       O  0.59417384  0.18625322  0.97635461    -0.80200
O1495       O  0.99540721  0.19854103  0.51567307    -0.80000
O1496       O  0.97218044  0.10940921  0.51677345    -0.78600
Zn1497     Zn  0.52788914  0.08824653  0.95957252     1.55700
O1498       O  0.52707384  0.21855409  0.97418784    -0.80000
Cd1499     Cd  0.50727954  0.14380892  0.52559878     1.59700
Cd1500     Cd  0.57240019  0.10985804  0.52409414     1.59600
O1501       O  0.51884119  0.14055688  0.58129705    -0.80000
O1502       O  0.53998950  0.12826142  0.99300423    -1.90500
Cd1503     Cd  0.55264617  0.17228889  0.96341098     1.59900
O1504       O  0.56307698  0.11809302  0.58049633    -0.80000
O1505       O  0.55025991  0.15975301  0.90640844    -0.78600
C1506       C  0.56776988  0.03005433  0.99215072     0.83900
C1507       C  0.96881646  0.08259329  0.99310245     0.83600
O1508       O  0.53236757  0.10179475  0.90557179    -0.77600
C1509       C  0.50548746  0.22404808  0.99501279     0.84400
O1510       O  0.54884574  0.04095801  0.96954375    -0.77700
C1511       C  0.54123445  0.13004283  0.59796764     0.84500
C1512       C  0.61355122  0.16958298  0.99452664     0.84800
O1513       O  0.60888730  0.13951407  0.51232208    -0.80100
O1514       O  0.98785975  0.07368283  0.71959211    -0.77600
C1515       C  0.54142244  0.13064528  0.63881937     0.83400
O1516       O  0.58001278  0.05280666  0.76481446    -0.78700
O1517       O  0.59416182  0.18636454  0.72636922    -0.80200
O1518       O  0.99540401  0.19866994  0.76571575    -0.80000
O1519       O  0.97216525  0.10953365  0.76684303    -0.78600
Zn1520     Zn  0.52783650  0.08836382  0.70958904     1.55700
O1521       O  0.52704557  0.21866206  0.72418370    -0.80000
Cd1522     Cd  0.50727527  0.14393194  0.77562959     1.59700
Cd1523     Cd  0.57239204  0.10992921  0.77404575     1.59600
O1524       O  0.51887204  0.14063510  0.83131418    -0.80000
O1525       O  0.53996831  0.12837432  0.74300380    -1.90500
Cd1526     Cd  0.55263142  0.17239647  0.71340564     1.59900
O1527       O  0.56307392  0.11805188  0.83045894    -0.80000
O1528       O  0.55026644  0.15981212  0.65639977    -0.78600
C1529       C  0.56774626  0.03014986  0.74206025     0.83900
C1530       C  0.96879130  0.08271308  0.74317906     0.83600
O1531       O  0.53228834  0.10189975  0.65559875    -0.77600
C1532       C  0.50547164  0.22416682  0.74503178     0.84400
O1533       O  0.54878995  0.04106112  0.71950479    -0.77700
C1534       C  0.54125222  0.13002827  0.84795766     0.84500
C1535       C  0.61353931  0.16968573  0.74453574     0.84800
O1536       O  0.60887504  0.13960551  0.76231073    -0.80100
C1537       C  0.85488008  0.79980623  0.99633236     0.04000
C1538       C  0.85080402  0.76063292  0.49717934    -0.12100
C1539       C  0.82335929  0.74575896  0.49748166     0.01500
C1540       C  0.80013113  0.77006131  0.49640126    -0.10700
C1541       C  0.80382719  0.80894946  0.99528528     0.04000
C1542       C  0.83122964  0.82388467  0.99552726    -0.10100
H1543       H  0.86883428  0.74187184  0.49778408     0.09600
H1544       H  0.77887207  0.75855358  0.49639481     0.07100
H1545       H  0.83411440  0.85402631  0.99490690     0.07000
C1546       C  0.85486507  0.79991035  0.24627153     0.04000
C1547       C  0.83121567  0.82398779  0.24547096    -0.12100
C1548       C  0.80381508  0.80905183  0.24521572     0.01500
C1549       C  0.80012023  0.77016079  0.24630796    -0.10700
C1550       C  0.82334943  0.74585986  0.24738239     0.04000
C1551       C  0.85079260  0.76073623  0.24709792    -0.10100
H1552       H  0.83410015  0.85413042  0.24486808     0.09600
H1553       H  0.77886230  0.75864975  0.24629835     0.07100
H1554       H  0.86882406  0.74197739  0.24770605     0.07000
O1555       O  0.73787493  0.66166410  0.02136802    -0.77600
C1556       C  0.79142294  0.60469806  0.10214587     0.83400
O1557       O  0.83002381  0.68253053  0.47613778    -0.78700
O1558       O  0.84417614  0.54898389  0.01460085    -0.80200
O1559       O  0.74541921  0.53666658  0.47525693    -0.80000
O1560       O  0.72217534  0.62579883  0.47413363    -0.78600
Zn1561     Zn  0.77784905  0.64697818  0.03137377     1.55700
O1562       O  0.77706256  0.51667436  0.01678251    -0.80000
Cd1563     Cd  0.75728644  0.59140456  0.46534347     1.59700
Cd1564     Cd  0.82240268  0.62540736  0.46690933     1.59600
O1565       O  0.76887627  0.59470327  0.40965693    -0.80000
O1566       O  0.78998082  0.60696481  0.49796093    -1.90500
Cd1567     Cd  0.80264324  0.56294502  0.02756166     1.59900
O1568       O  0.81307860  0.61728480  0.41049755    -0.80000
O1569       O  0.80026983  0.57553090  0.08456737    -0.78600
C1570       C  0.81776077  0.70518779  0.49889649     0.83900
C1571       C  0.71880446  0.65262772  0.49778895     0.83600
O1572       O  0.78229178  0.63344326  0.08536456    -0.77600
C1573       C  0.75548878  0.51116909  0.49593684     0.84400
O1574       O  0.79880649  0.69427789  0.02145791    -0.77700
C1575       C  0.79125409  0.60531036  0.39300599     0.84500
C1576       C  0.86355257  0.56565837  0.49642618     0.84800
O1577       O  0.85888680  0.59573209  0.47864146    -0.80100
O1578       O  0.73788208  0.66178279  0.27144281    -0.77600
C1579       C  0.79145032  0.60476169  0.35215394     0.83400
O1580       O  0.82999283  0.68262695  0.22603447    -0.78700
O1581       O  0.84415663  0.54908548  0.26459811    -0.80200
O1582       O  0.74539039  0.53680959  0.22528765    -0.80000
O1583       O  0.72216938  0.62594425  0.22419352    -0.78600
Zn1584     Zn  0.77787384  0.64709674  0.28139668     1.55700
O1585       O  0.77705490  0.51679318  0.26677011    -0.80000
Cd1586     Cd  0.75726647  0.59154122  0.21536507     1.59700
Cd1587     Cd  0.82238820  0.62548653  0.21687171     1.59600
O1588       O  0.76883311  0.59479269  0.15966680    -0.80000
O1589       O  0.78997469  0.60708427  0.24796047    -1.90500
Cd1590     Cd  0.80263015  0.56305392  0.27754759     1.59900
O1591       O  0.81307088  0.61724942  0.16047005    -0.80000
O1592       O  0.80025043  0.57558703  0.33455082    -0.78600
C1593       C  0.81775451  0.70528967  0.24881369     0.83900
C1594       C  0.71880239  0.65275466  0.24787048     0.83600
O1595       O  0.78236006  0.63354649  0.33539626    -0.77600
C1596       C  0.75546942  0.51130104  0.24594578     0.84400
O1597       O  0.79882918  0.69438625  0.27142154    -0.77700
C1598       C  0.79122943  0.60530230  0.14299754     0.84500
C1599       C  0.86353673  0.56575964  0.24643243     0.84800
O1600       O  0.85887543  0.59583293  0.22864399    -0.80100
C1601       C  0.64235395  0.68546884  0.99488784     0.04000
C1602       C  0.64640275  0.72466126  0.99427490    -0.12100
C1603       C  0.67384113  0.73957884  0.99429958     0.01500
C1604       C  0.69707885  0.71529664  0.99550010    -0.10700
C1605       C  0.69340589  0.67639048  0.99635205     0.04000
C1606       C  0.66601792  0.66142218  0.99579112    -0.10100
H1607       H  0.62836149  0.74339715  0.99354963     0.09600
H1608       H  0.71832930  0.72683426  0.99571355     0.07100
H1609       H  0.66315405  0.63126948  0.99620822     0.07000
C1610       C  0.64234208  0.68557512  0.24492337     0.04000
C1611       C  0.64638707  0.72476711  0.24432078    -0.12100
C1612       C  0.67382354  0.73968796  0.24438106     0.01500
C1613       C  0.69706417  0.71541509  0.24562238    -0.10700
C1614       C  0.69339733  0.67650921  0.24645554     0.04000
C1615       C  0.66601026  0.66153371  0.24584751    -0.10100
H1616       H  0.62834506  0.74349999  0.24356984     0.09600
H1617       H  0.71831243  0.72695968  0.24586051     0.07100
H1618       H  0.66315021  0.63137955  0.24624245     0.07000
O1619       O  0.71484846  0.85175853  0.40615194    -0.77600
C1620       C  0.77843440  0.83271419  0.49380331     0.83400
O1621       O  0.66716117  0.80285938  0.01555727    -0.78700
O1622       O  0.72839877  0.89055192  0.08187890    -0.80200
O1623       O  0.72020749  0.96869039  0.47482046    -0.80000
O1624       O  0.69720305  0.90984772  0.40696849    -0.78600
Zn1625     Zn  0.71936215  0.83830053  0.46020946     1.55700
O1626       O  0.75181720  0.94869722  0.01638324    -0.80000
Cd1627     Cd  0.69470625  0.92238191  0.46393123     1.59700
Cd1628     Cd  0.67479850  0.86002105  0.02465103     1.59600
O1629       O  0.65312525  0.93624736  0.47653961    -0.80000
O1630       O  0.70726523  0.87836146  0.49359354    -1.90500
Cd1631     Cd  0.73995660  0.89393328  0.02621287     1.59900
O1632       O  0.63833151  0.88966215  0.01265487    -0.80000
O1633       O  0.77506702  0.85956635  0.01742861    -0.78600
C1634       C  0.67943787  0.78015682  0.49285313     0.83900
C1635       C  0.70586759  0.88060019  0.38937965     0.83600
O1636       O  0.75936050  0.82364437  0.47023425    -0.77600
C1637       C  0.74175669  0.97420202  0.49570538     0.84400
O1638       O  0.69840193  0.79102973  0.47028551    -0.77700
C1639       C  0.63369976  0.91961963  0.49465932     0.84500
C1640       C  0.70600105  0.88005460  0.09854514     0.84800
O1641       O  0.68412090  0.86822396  0.08107277    -0.80100
O1642       O  0.71479949  0.85179498  0.15618495    -0.77600
C1643       C  0.77842415  0.83281993  0.24375319     0.83400
O1644       O  0.66712976  0.80298118  0.26557339    -0.80300
O1645       O  0.72843070  0.89057035  0.33186495    -0.80200
O1646       O  0.72020808  0.96880545  0.22479793    -0.80000
O1647       O  0.69720065  0.90991060  0.15695735    -0.78600
Zn1648     Zn  0.71933384  0.83837704  0.21023260     1.55700
O1649       O  0.75179378  0.94883563  0.26640492    -0.80000
Cd1650     Cd  0.69470768  0.92248744  0.21391289     1.59700
Cd1651     Cd  0.67479153  0.86013443  0.27463229     1.59600
O1652       O  0.65312104  0.93635339  0.22650493    -0.80000
O1653       O  0.70726358  0.87847074  0.24358536    -1.90500
Cd1654     Cd  0.73996529  0.89404684  0.27619056     1.59900
O1655       O  0.63832286  0.88977435  0.26262388    -0.80000
O1656       O  0.77508920  0.85971554  0.26733829    -0.78600
C1657       C  0.67941664  0.78026043  0.24290180     0.83900
C1658       C  0.70583588  0.88063209  0.13939294     0.83600
O1659       O  0.75932195  0.82371443  0.22024048    -0.77600
C1660       C  0.74174112  0.97433179  0.24570933     0.84400
O1661       O  0.69838769  0.79111438  0.22033874    -0.77700
C1662       C  0.63369112  0.91972570  0.24461760     0.84500
C1663       C  0.70603150  0.88006765  0.34852815     0.84800
O1664       O  0.68413775  0.86829080  0.33104980    -0.80100
C1665       C  0.89235593  0.54977110  0.49604158     0.04000
C1666       C  0.91602374  0.57381357  0.49512085    -0.12100
C1667       C  0.94341123  0.55883889  0.49451874     0.01500
C1668       C  0.94707858  0.51993310  0.49535409    -0.10700
C1669       C  0.92383824  0.99565933  0.49659071     0.04000
C1670       C  0.89640158  0.51057936  0.49664547    -0.10100
H1671       H  0.91316302  0.60396755  0.49472377     0.09600
H1672       H  0.96832703  0.50838925  0.49511931     0.07100
H1673       H  0.87835963  0.99184590  0.49739291     0.07000
C1674       C  0.89233948  0.54987335  0.24607141     0.04000
C1675       C  0.91600398  0.57391977  0.24517245    -0.12100
C1676       C  0.94339189  0.55895106  0.24461396     0.01500
C1677       C  0.94706414  0.52004468  0.24546347    -0.10700
C1678       C  0.92382593  0.99576245  0.24665980     0.04000
C1679       C  0.89638778  0.51068066  0.24668220    -0.10100
H1680       H  0.91314064  0.60407264  0.24475678     0.09600
H1681       H  0.96831455  0.50850689  0.24525113     0.07100
H1682       H  0.87834613  0.99194491  0.24740457     0.07000
O1683       O  0.96480490  0.88354621  0.08477636    -0.77600
C1684       C  0.52843748  0.90252388  0.49720141     0.83400
O1685       O  0.91714084  0.93236643  0.47540029    -0.78700
O1686       O  0.97843406  0.84477543  0.40908842    -0.80200
O1687       O  0.97022492  0.76654278  0.01616104    -0.80000
O1688       O  0.94720426  0.82543148  0.08400036    -0.78600
Zn1689     Zn  0.96934725  0.89696543  0.03072906     1.55700
O1690       O  0.50180859  0.78651223  0.47454694    -0.80000
Cd1691     Cd  0.94471956  0.81285594  0.02704480     1.59700
Cd1692     Cd  0.92480203  0.87521387  0.46633775     1.59600
O1693       O  0.90313534  0.79898305  0.01445027    -0.80000
O1694       O  0.95727612  0.85687470  0.49737460    -1.90500
Cd1695     Cd  0.98997612  0.84130088  0.46476070     1.59900
O1696       O  0.88833465  0.84557266  0.47834902    -0.80000
O1697       O  0.52509926  0.87563617  0.47360811    -0.78600
C1698       C  0.92943137  0.95508654  0.49806735     0.83900
C1699       C  0.95583759  0.85470920  0.10156653     0.83600
O1700       O  0.50933764  0.91162323  0.02072226    -0.77600
C1701       C  0.99175801  0.76101689  0.49524697     0.84400
O1702       O  0.94840469  0.94423115  0.02062401    -0.77700
C1703       C  0.88370438  0.81561485  0.49634573     0.84500
C1704       C  0.95603266  0.85527881  0.39243287     0.84800
O1705       O  0.93414197  0.86705811  0.40991865    -0.80100
O1706       O  0.96484014  0.88358561  0.33480464    -0.77600
C1707       C  0.52842038  0.90262263  0.24714931     0.83400
O1708       O  0.91714743  0.93248129  0.22540128    -0.78700
O1709       O  0.97839163  0.84478347  0.15908215    -0.80200
O1710       O  0.97018819  0.76664712  0.26614647    -0.80000
O1711       O  0.94719286  0.82549755  0.33399675    -0.78600
Zn1712     Zn  0.96934637  0.89704143  0.28074580     1.55700
O1713       O  0.50180019  0.78663681  0.22458122    -0.80000
Cd1714     Cd  0.94468989  0.81296032  0.27703471     1.59700
Cd1715     Cd  0.92478666  0.87531901  0.21630698     1.59600
O1716       O  0.90310775  0.79909928  0.26443150    -0.80000
O1717       O  0.95725036  0.85697780  0.24736627    -1.90500
Cd1718     Cd  0.98994374  0.84140131  0.21474836     1.59900
O1719       O  0.88831965  0.84567555  0.22830204    -0.80000
O1720       O  0.52505629  0.87576446  0.22353027    -0.78600
C1721       C  0.92942235  0.95518402  0.24810558     0.83900
C1722       C  0.95586178  0.85474475  0.35158137     0.83600
O1723       O  0.50934310  0.91169812  0.27071351    -0.77600
C1724       C  0.99173841  0.76113354  0.24526115     0.84400
O1725       O  0.94838491  0.94431109  0.27067290    -0.77700
C1726       C  0.88368519  0.81572279  0.24630477     0.84500
C1727       C  0.95599704  0.85528500  0.14241431     0.84800
O1728       O  0.93411556  0.86711797  0.15988513    -0.80100
C1729       C  0.60487962  0.93543240  0.49469177     0.04000
C1730       C  0.58122974  0.91135502  0.49548755    -0.12100
C1731       C  0.55382924  0.92629130  0.49574013     0.01500
C1732       C  0.55013503  0.96518256  0.49465030    -0.10700
C1733       C  0.57336464  0.98948366  0.49358064     0.04000
C1734       C  0.60080758  0.97460678  0.49386773    -0.10100
H1735       H  0.58411379  0.88121228  0.49608897     0.09600
H1736       H  0.52887719  0.97669365  0.49465863     0.07100
H1737       H  0.61883938  0.99336558  0.49326295     0.07000
C1738       C  0.60486622  0.93553221  0.24462826     0.04000
C1739       C  0.60078961  0.97470527  0.24378010    -0.12100
C1740       C  0.57334481  0.98957845  0.24347272     0.01500
C1741       C  0.55011693  0.96527522  0.24454841    -0.10700
C1742       C  0.55381338  0.92638710  0.24566611     0.04000
C1743       C  0.58121618  0.91145273  0.24542994    -0.10100
H1744       H  0.61881984  0.99346694  0.24317862     0.09600
H1745       H  0.52885775  0.97678224  0.24455159     0.07100
H1746       H  0.58410157  0.88131128  0.24605227     0.07000
O1747       O  0.98789912  0.57355998  0.46953421    -0.77600
C1748       C  0.54145532  0.63057871  0.38880962     0.83400
O1749       O  0.58000668  0.55271710  0.01493007    -0.78700
O1750       O  0.59417393  0.68625318  0.47635456    -0.80200
O1751       O  0.99540720  0.69854097  0.01567308    -0.80000
O1752       O  0.97218049  0.60940918  0.01677342    -0.78600
Zn1753     Zn  0.52788912  0.58824650  0.45957250     1.55700
O1754       O  0.52707378  0.71855409  0.47418781    -0.80000
Cd1755     Cd  0.50727957  0.64380885  0.02559878     1.59700
Cd1756     Cd  0.57240027  0.60985818  0.02409411     1.59600
O1757       O  0.51884128  0.64055686  0.08129701    -0.80000
O1758       O  0.53998950  0.62826144  0.49300420    -1.90500
Cd1759     Cd  0.55264624  0.67228896  0.46341095     1.59900
O1760       O  0.56307708  0.61809303  0.08049631    -0.80000
O1761       O  0.55025994  0.65975301  0.40640841    -0.78600
C1762       C  0.56776991  0.53005431  0.49215069     0.83900
C1763       C  0.96881643  0.58259333  0.49310243     0.83600
O1764       O  0.53236751  0.60179476  0.40557177    -0.77600
C1765       C  0.50548742  0.72404814  0.49501277     0.84400
O1766       O  0.54884574  0.54095799  0.46954377    -0.77700
C1767       C  0.54123453  0.63004283  0.09796761     0.84500
C1768       C  0.61355125  0.66958291  0.49452663     0.84800
O1769       O  0.60888740  0.63951415  0.01232212    -0.80100
O1770       O  0.98785969  0.57368301  0.21959203    -0.77600
C1771       C  0.54142246  0.63064532  0.13881937     0.83400
O1772       O  0.58001288  0.55280658  0.26481445    -0.78700
O1773       O  0.59416185  0.68636452  0.22636920    -0.80200
O1774       O  0.99540405  0.69867005  0.26571594    -0.80000
O1775       O  0.97216520  0.60953372  0.26684305    -0.78600
Zn1776     Zn  0.52783650  0.58836395  0.20958902     1.55700
O1777       O  0.52704546  0.71866212  0.22418367    -0.80000
Cd1778     Cd  0.50727536  0.64393204  0.27562961     1.59700
Cd1779     Cd  0.57239210  0.60992916  0.27404584     1.59600
O1780       O  0.51887210  0.64063502  0.33131414    -0.80000
O1781       O  0.53996837  0.62837440  0.24300386    -1.90500
Cd1782     Cd  0.55263139  0.67239659  0.21340574     1.59900
O1783       O  0.56307404  0.61805198  0.33045898    -0.80000
O1784       O  0.55026645  0.65981215  0.15639982    -0.78600
C1785       C  0.56774632  0.53014985  0.24206022     0.83900
C1786       C  0.96879125  0.58271318  0.24317902     0.83600
O1787       O  0.53228829  0.60189980  0.15559871    -0.77600
C1788       C  0.50547160  0.72416688  0.24503185     0.84400
O1789       O  0.54879003  0.54106117  0.21950476    -0.77700
C1790       C  0.54125229  0.63002826  0.34795765     0.84500
C1791       C  0.61353932  0.66968569  0.24453576     0.84800
O1792       O  0.60887505  0.63960547  0.26231073    -0.80100
C1793       C  0.85488002  0.79980624  0.49633233     0.04000
C1794       C  0.85080409  0.76063292  0.99717937    -0.12100
C1795       C  0.82335936  0.74575896  0.99748171     0.01500
C1796       C  0.80013118  0.77006127  0.99640124    -0.10700
C1797       C  0.80382716  0.80894952  0.49528544     0.04000
C1798       C  0.83122961  0.82388470  0.49552729    -0.10100
H1799       H  0.86883438  0.74187185  0.99778412     0.09600
H1800       H  0.77887214  0.75855353  0.99639484     0.07100
H1801       H  0.83411437  0.85402634  0.49490688     0.07000
C1802       C  0.85486504  0.79991038  0.74627153     0.04000
C1803       C  0.83121566  0.82398784  0.74547098    -0.12100
C1804       C  0.80381506  0.80905184  0.74521566     0.01500
C1805       C  0.80012023  0.77016078  0.74630779    -0.10700
C1806       C  0.82334943  0.74585984  0.74738228     0.04000
C1807       C  0.85079259  0.76073625  0.74709791    -0.10100
H1808       H  0.83410017  0.85413045  0.74486814     0.09600
H1809       H  0.77886229  0.75864973  0.74629814     0.07100
H1810       H  0.86882405  0.74197748  0.74770613     0.07000
O1811       O  0.73787497  0.66166427  0.52136808    -0.77600
C1812       C  0.79142294  0.60469806  0.60214590     0.83400
O1813       O  0.83002387  0.68253058  0.97613784    -0.78700
O1814       O  0.84417607  0.54898376  0.51460091    -0.80200
O1815       O  0.74541929  0.53666659  0.97525693    -0.80000
O1816       O  0.72217530  0.62579877  0.97413352    -0.78600
Zn1817     Zn  0.77784903  0.64697821  0.53137379     1.55700
O1818       O  0.77706246  0.51667440  0.51678255    -0.80000
Cd1819     Cd  0.75728648  0.59140462  0.96534348     1.59700
Cd1820     Cd  0.82240265  0.62540746  0.96690932     1.59600
O1821       O  0.76887636  0.59470335  0.90965696    -0.80000
O1822       O  0.78998081  0.60696488  0.99796094    -1.90500
Cd1823     Cd  0.80264317  0.56294495  0.52756171     1.59900
O1824       O  0.81307868  0.61728490  0.91049744    -0.80000
O1825       O  0.80026981  0.57553089  0.58456740    -0.78600
C1826       C  0.81776080  0.70518783  0.99889653     0.83900
C1827       C  0.71880441  0.65262761  0.99778889     0.83600
O1828       O  0.78229183  0.63344329  0.58536459    -0.77600
C1829       C  0.75548884  0.51116906  0.99593680     0.84400
O1830       O  0.79880652  0.69427785  0.52145796    -0.77700
C1831       C  0.79125415  0.60531042  0.89300595     0.84500
C1832       C  0.86355264  0.56565849  0.99642612     0.84800
O1833       O  0.85888685  0.59573224  0.97864142    -0.80100
O1834       O  0.73788210  0.66178276  0.77144284    -0.77600
C1835       C  0.79145031  0.60476162  0.85215390     0.83400
O1836       O  0.82999292  0.68262692  0.72603450    -0.78700
O1837       O  0.84415666  0.54908562  0.76459816    -0.80200
O1838       O  0.74539046  0.53680960  0.72528770    -0.80000
O1839       O  0.72216933  0.62594432  0.72419352    -0.78600
Zn1840     Zn  0.77787382  0.64709663  0.78139668     1.55700
O1841       O  0.77705495  0.51679312  0.76677015    -0.80000
Cd1842     Cd  0.75726640  0.59154129  0.71536510     1.59700
Cd1843     Cd  0.82238824  0.62548655  0.71687176     1.59600
O1844       O  0.76883305  0.59479275  0.65966684    -0.80000
O1845       O  0.78997465  0.60708421  0.74796048    -1.90500
Cd1846     Cd  0.80263011  0.56305385  0.77754762     1.59900
O1847       O  0.81307088  0.61724935  0.66047009    -0.80000
O1848       O  0.80025031  0.57558687  0.83455082    -0.78600
C1849       C  0.81775456  0.70528963  0.74881368     0.83900
C1850       C  0.71880239  0.65275471  0.74787051     0.83600
O1851       O  0.78236010  0.63354642  0.83539618    -0.77600
C1852       C  0.75546949  0.51130102  0.74594580     0.84400
O1853       O  0.79882925  0.69438616  0.77142154    -0.77700
C1854       C  0.79122940  0.60530228  0.64299758     0.84500
C1855       C  0.86353678  0.56575977  0.74643248     0.84800
O1856       O  0.85887551  0.59583304  0.72864403    -0.80100
C1857       C  0.64235400  0.68546879  0.49488790     0.04000
C1858       C  0.64640278  0.72466121  0.49427487    -0.12100
C1859       C  0.67384116  0.73957882  0.49429959     0.01500
C1860       C  0.69707888  0.71529668  0.49550021    -0.10700
C1861       C  0.69340594  0.67639053  0.49635213     0.04000
C1862       C  0.66601798  0.66142219  0.49579124    -0.10100
H1863       H  0.62836153  0.74339706  0.49354952     0.09600
H1864       H  0.71832936  0.72683435  0.49571374     0.07100
H1865       H  0.66315414  0.63126945  0.49620842     0.07000
C1866       C  0.64234206  0.68557512  0.74492327     0.04000
C1867       C  0.64638703  0.72476714  0.74432076    -0.12100
C1868       C  0.67382352  0.73968801  0.74438109     0.01500
C1869       C  0.69706415  0.71541516  0.74562243    -0.10700
C1870       C  0.69339733  0.67650926  0.74645562     0.04000
C1871       C  0.66601026  0.66153375  0.74584750    -0.10100
H1872       H  0.62834505  0.74349998  0.74356988     0.09600
H1873       H  0.71831241  0.72695974  0.74586056     0.07100
H1874       H  0.66315023  0.63137953  0.74624248     0.07000
O1875       O  0.71484846  0.85175856  0.90615194    -0.77600
C1876       C  0.77843437  0.83271408  0.99380320     0.83400
O1877       O  0.66716111  0.80285932  0.51555722    -0.78700
O1878       O  0.72839875  0.89055207  0.58187893    -0.80200
O1879       O  0.72020748  0.96869038  0.97482051    -0.80000
O1880       O  0.69720298  0.90984770  0.90696846    -0.78600
Zn1881     Zn  0.71936208  0.83830057  0.96020947     1.55700
O1882       O  0.75181713  0.94869732  0.51638336    -0.80000
Cd1883     Cd  0.69470630  0.92238192  0.96393122     1.59700
Cd1884     Cd  0.67479844  0.86002100  0.52465103     1.59600
O1885       O  0.65312532  0.93624735  0.97653964    -0.80000
O1886       O  0.70726525  0.87836149  0.99359355    -1.90500
Cd1887     Cd  0.73995654  0.89393340  0.52621290     1.59900
O1888       O  0.63833146  0.88966217  0.51265488    -0.80000
O1889       O  0.77506701  0.85956649  0.51742869    -0.78600
C1890       C  0.67943787  0.78015686  0.99285314     0.83900
C1891       C  0.70586755  0.88060019  0.88937964     0.83600
O1892       O  0.75936042  0.82364426  0.97023422    -0.77600
C1893       C  0.74175673  0.97420197  0.99570536     0.84400
O1894       O  0.69840188  0.79102976  0.97028546    -0.77700
C1895       C  0.63369982  0.91961963  0.99465934     0.84500
C1896       C  0.70600105  0.88005466  0.59854514     0.84800
O1897       O  0.68412091  0.86822399  0.58107276    -0.80100
O1898       O  0.71479936  0.85179496  0.65618495    -0.77600
C1899       C  0.77842409  0.83281987  0.74375316     0.83400
O1900       O  0.66712977  0.80298128  0.76557343    -0.80300
O1901       O  0.72843064  0.89057044  0.83186497    -0.80200
O1902       O  0.72020808  0.96880550  0.72479791    -0.80000
O1903       O  0.69720074  0.90991070  0.65695732    -0.78600
Zn1904     Zn  0.71933385  0.83837700  0.71023264     1.55700
O1905       O  0.75179370  0.94883564  0.76640496    -0.80000
Cd1906     Cd  0.69470774  0.92248743  0.71391288     1.59700
Cd1907     Cd  0.67479149  0.86013452  0.77463234     1.59600
O1908       O  0.65312111  0.93635339  0.72650501    -0.80000
O1909       O  0.70726355  0.87847073  0.74358539    -1.90500
Cd1910     Cd  0.73996519  0.89404689  0.77619059     1.59900
O1911       O  0.63832287  0.88977430  0.76262385    -0.80000
O1912       O  0.77508907  0.85971547  0.76733827    -0.78600
C1913       C  0.67941662  0.78026051  0.74290184     0.83900
C1914       C  0.70583586  0.88063213  0.63939293     0.83600
O1915       O  0.75932192  0.82371430  0.72024044    -0.77600
C1916       C  0.74174111  0.97433181  0.74570935     0.84400
O1917       O  0.69838770  0.79111442  0.72033879    -0.77700
C1918       C  0.63369116  0.91972566  0.74461762     0.84500
C1919       C  0.70603145  0.88006769  0.84852816     0.84800
O1920       O  0.68413767  0.86829091  0.83104982    -0.80100
C1921       C  0.89235600  0.54977119  0.99604154     0.04000
C1922       C  0.91602382  0.57381360  0.99512088    -0.12100
C1923       C  0.94341127  0.55883889  0.99451876     0.01500
C1924       C  0.94707862  0.51993311  0.99535410    -0.10700
C1925       C  0.92383822  0.99565933  0.99659070     0.04000
C1926       C  0.89640164  0.51057944  0.99664547    -0.10100
H1927       H  0.91316311  0.60396763  0.99472380     0.09600
H1928       H  0.96832706  0.50838928  0.99511928     0.07100
H1929       H  0.87835960  0.99184602  0.99739285     0.07000
C1930       C  0.89233950  0.54987340  0.74607145     0.04000
C1931       C  0.91600404  0.57391980  0.74517248    -0.12100
C1932       C  0.94339192  0.55895099  0.74461398     0.01500
C1933       C  0.94706412  0.52004462  0.74546349    -0.10700
C1934       C  0.92382591  0.99576244  0.74665986     0.04000
C1935       C  0.89638775  0.51068071  0.74668222    -0.10100
H1936       H  0.91314075  0.60407261  0.74475682     0.09600
H1937       H  0.96831449  0.50850676  0.74525116     0.07100
H1938       H  0.87834609  0.99194494  0.74740460     0.07000
O1939       O  0.96480481  0.88354615  0.58477625    -0.77600
C1940       C  0.52843752  0.90252378  0.99720143     0.83400
O1941       O  0.91714076  0.93236639  0.97540036    -0.78700
O1942       O  0.97843413  0.84477553  0.90908843    -0.80200
O1943       O  0.97022494  0.76654282  0.51616105    -0.80000
O1944       O  0.94720434  0.82543133  0.58400031    -0.78600
Zn1945     Zn  0.96934722  0.89696544  0.53072894     1.55700
O1946       O  0.50180860  0.78651219  0.97454696    -0.80000
Cd1947     Cd  0.94471950  0.81285586  0.52704468     1.59700
Cd1948     Cd  0.92480207  0.87521384  0.96633779     1.59600
O1949       O  0.90313526  0.79898298  0.51445025    -0.80000
O1950       O  0.95727612  0.85687476  0.99737471    -1.90500
Cd1951     Cd  0.98997609  0.84130092  0.96476075     1.59900
O1952       O  0.88833467  0.84557269  0.97834905    -0.80000
O1953       O  0.52509930  0.87563607  0.97360814    -0.78600
C1954       C  0.92943131  0.95508653  0.99806738     0.83900
C1955       C  0.95583761  0.85470910  0.60156647     0.83600
O1956       O  0.50933760  0.91162335  0.52072222    -0.77600
C1957       C  0.99175801  0.76101685  0.99524699     0.84400
O1958       O  0.94840472  0.94423115  0.52062399    -0.77700
C1959       C  0.88370444  0.81561488  0.99634575     0.84500
C1960       C  0.95603271  0.85527889  0.89243289     0.84800
O1961       O  0.93414204  0.86705819  0.90991870    -0.80100
O1962       O  0.96484006  0.88358561  0.83480457    -0.77600
C1963       C  0.52842036  0.90262271  0.74714934     0.83400
O1964       O  0.91714751  0.93248132  0.72540114    -0.78700
O1965       O  0.97839165  0.84478338  0.65908215    -0.80200
O1966       O  0.97018818  0.76664710  0.76614634    -0.80000
O1967       O  0.94719288  0.82549750  0.83399681    -0.78600
Zn1968     Zn  0.96934630  0.89704135  0.78074570     1.55700
O1969       O  0.50180031  0.78663688  0.72458129    -0.80000
Cd1970     Cd  0.94468984  0.81296031  0.77703472     1.59700
Cd1971     Cd  0.92478674  0.87531898  0.71630699     1.59600
O1972       O  0.90310771  0.79909921  0.76443153    -0.80000
O1973       O  0.95725039  0.85697770  0.74736624    -1.90500
Cd1974     Cd  0.98994379  0.84140135  0.71474837     1.59900
O1975       O  0.88831969  0.84567554  0.72830211    -0.80000
O1976       O  0.52505631  0.87576455  0.72353031    -0.78600
C1977       C  0.92942235  0.95518402  0.74810554     0.83900
C1978       C  0.95586178  0.85474475  0.85158137     0.83600
O1979       O  0.50934303  0.91169824  0.77071346    -0.77600
C1980       C  0.99173847  0.76113356  0.74526111     0.84400
O1981       O  0.94838486  0.94431104  0.77067288    -0.77700
C1982       C  0.88368518  0.81572278  0.74630481     0.84500
C1983       C  0.95599708  0.85528496  0.64241429     0.84800
O1984       O  0.93411564  0.86711805  0.65988513    -0.80100
C1985       C  0.60487964  0.93543240  0.99469181     0.04000
C1986       C  0.58122978  0.91135502  0.99548759    -0.12100
C1987       C  0.55382925  0.92629126  0.99574013     0.01500
C1988       C  0.55013501  0.96518254  0.99465034    -0.10700
C1989       C  0.57336459  0.98948367  0.99358068     0.04000
C1990       C  0.60080758  0.97460681  0.99386773    -0.10100
H1991       H  0.58411383  0.88121228  0.99608901     0.09600
H1992       H  0.52887713  0.97669360  0.99465866     0.07100
H1993       H  0.61883932  0.99336558  0.99326291     0.07000
C1994       C  0.60486624  0.93553218  0.74462828     0.04000
C1995       C  0.60078961  0.97470522  0.74378013    -0.12100
C1996       C  0.57334482  0.98957844  0.74347273     0.01500
C1997       C  0.55011694  0.96527520  0.74454845    -0.10700
C1998       C  0.55381339  0.92638711  0.74566620     0.04000
C1999       C  0.58121619  0.91145269  0.74542998    -0.10100
H2000       H  0.61881988  0.99346693  0.74317866     0.09600
H2001       H  0.52885775  0.97678223  0.74455163     0.07100
H2002       H  0.58410158  0.88131125  0.74605230     0.07000
O2003       O  0.98789916  0.57355984  0.96953428    -0.77600
C2004       C  0.54145534  0.63057873  0.88880964     0.83400
O2005       O  0.58000671  0.55271703  0.51493004    -0.78700
O2006       O  0.59417387  0.68625314  0.97635457    -0.80200
O2007       O  0.99540724  0.69854107  0.51567309    -0.80000
O2008       O  0.97218045  0.60940922  0.51677343    -0.78600
Zn2009     Zn  0.52788915  0.58824643  0.95957252     1.55700
O2010       O  0.52707383  0.71855403  0.97418789    -0.80000
Cd2011     Cd  0.50727954  0.64380893  0.52559880     1.59700
Cd2012     Cd  0.57240021  0.60985806  0.52409413     1.59600
O2013       O  0.51884119  0.64055673  0.58129705    -0.80000
O2014       O  0.53998950  0.62826140  0.99300421    -1.90500
Cd2015     Cd  0.55264619  0.67228888  0.96341097     1.59900
O2016       O  0.56307704  0.61809307  0.58049633    -0.80000
O2017       O  0.55025993  0.65975304  0.90640843    -0.78600
C2018       C  0.56776990  0.53005435  0.99215073     0.83900
C2019       C  0.96881647  0.58259326  0.99310245     0.83600
O2020       O  0.53236759  0.60179476  0.90557180    -0.77600
C2021       C  0.50548742  0.72404806  0.99501279     0.84400
O2022       O  0.54884577  0.54095801  0.96954374    -0.77700
C2023       C  0.54123446  0.63004277  0.59796763     0.84500
C2024       C  0.61355125  0.66958294  0.99452664     0.84800
O2025       O  0.60888732  0.63951411  0.51232208    -0.80100
O2026       O  0.98785975  0.57368287  0.71959206    -0.77600
C2027       C  0.54142242  0.63064525  0.63881937     0.83400
O2028       O  0.58001280  0.55280663  0.76481446    -0.78700
O2029       O  0.59416176  0.68636456  0.72636923    -0.80200
O2030       O  0.99540403  0.69866997  0.76571576    -0.80000
O2031       O  0.97216530  0.60953358  0.76684309    -0.78600
Zn2032     Zn  0.52783648  0.58836386  0.70958904     1.55700
O2033       O  0.52704548  0.71866209  0.72418363    -0.80000
Cd2034     Cd  0.50727525  0.64393194  0.77562962     1.59700
Cd2035     Cd  0.57239203  0.60992913  0.77404574     1.59600
O2036       O  0.51887203  0.64063496  0.83131417    -0.80000
O2037       O  0.53996827  0.62837432  0.74300382    -1.90500
Cd2038     Cd  0.55263131  0.67239650  0.71340564     1.59900
O2039       O  0.56307397  0.61805191  0.83045894    -0.80000
O2040       O  0.55026645  0.65981206  0.65639977    -0.78600
C2041       C  0.56774627  0.53014988  0.74206025     0.83900
C2042       C  0.96879132  0.58271307  0.74317906     0.83600
O2043       O  0.53228822  0.60189977  0.65559875    -0.77600
C2044       C  0.50547160  0.72416686  0.74503179     0.84400
O2045       O  0.54878997  0.54106117  0.71950479    -0.77700
C2046       C  0.54125225  0.63002825  0.84795766     0.84500
C2047       C  0.61353927  0.66968575  0.74453574     0.84800
O2048       O  0.60887500  0.63960552  0.76231072    -0.80100
loop_ 
_geom_bond_atom_site_label_1 
_geom_bond_atom_site_label_2 
_geom_bond_distance 
_geom_bond_site_symmetry_2 
_ccdc_geom_bond_type 
C1            C6   1.410       .  A
C1          C258   1.410       .  A
C1          C423   1.474       .  S
C2            C3   1.402       .  A
C2          C257   1.410       .  A
C2            H7   1.084       .  S
C3            C4   1.399       .  A
C3           C34   1.472       .  S
C4          C261   1.398       .  A
C4            H8   1.085       .  S
C5            C6   1.400       .  A
C5          C260   1.398       .  A
C5          C340   1.471       .  S
C6            H9   1.084       .  S
C10          C11   1.410       .  A
C10          C15   1.410       .  A
C10         C190   1.474       .  S
C11          C12   1.400       .  A
C11          H16   1.084       .  S
C12          C13   1.398       .  A
C12         C107   1.471       .  S
C13          C14   1.399       .  A
C13          H17   1.085       .  S
C14          C15   1.401       .  A
C14          C57   1.472       .  S
C15          H18   1.084       .  S
O19         Zn25   1.995       .  S
O19         C291   1.271   1_554  A
C20          C62   1.459       .  S
C20          O36   1.272       .  A
C20          O33   1.275       .  A
O21          C34   1.274       .  A
O21         Cd28   2.088       .  S
O22         C296   1.276   1_554  A
O22         Cd31   2.075       .  S
O23          C37   1.274       .  A
O23         Cd27   2.067       .  S
O24          C35   1.274       .  A
O24         Cd27   2.084       .  S
Zn25         O36   2.008       .  S
Zn25         O38   1.993       .  S
Zn25        O286   1.930   1_554  S
O26         C293   1.276   1_554  A
O26         Cd31   2.075       .  S
Cd27         O29   2.069       .  S
Cd27         O30   2.007       .  S
Cd28         O32   2.078       .  S
Cd28         O41   2.070       .  S
Cd28         O30   2.010       .  S
O29          C39   1.274       .  A
O30        Zn281   1.930       .  S
O30        Cd287   2.000       .  S
Cd31         O33   2.080       .  S
Cd31        O286   2.000   1_554  S
O32          C39   1.275       .  A
C34         O294   1.271       .  A
C35         C325   1.471       .  S
C35         O275   1.271       .  A
C37         C613   1.469   1_545  S
C37         O282   1.276       .  A
O38         C290   1.271   1_554  A
C39          C43   1.459       .  S
C40         C129   1.475       .  S
C40          O41   1.276       .  A
C40         O278   1.276       .  A
O42         Zn48   1.995       .  S
O42          C58   1.271       .  A
C43          O59   1.272       .  A
C43          O56   1.275       .  A
O44          C57   1.275       .  A
O44         Cd51   2.088       .  S
O45          C63   1.276       .  A
O45         Cd54   2.075       .  S
O46          C60   1.274       .  A
O46         Cd50   2.067       .  S
O47          C58   1.274       .  A
O47         Cd50   2.083       .  S
Zn48         O59   2.009       .  S
Zn48         O61   1.993       .  S
Zn48         O53   1.930       .  S
O49          C60   1.276       .  A
O49         Cd54   2.075       .  S
Cd50         O52   2.069       .  S
Cd50         O53   2.007       .  S
Cd51         O55   2.078       .  S
Cd51         O64   2.070       .  S
Cd51         O53   2.010       .  S
O52          C62   1.274       .  A
O53         Cd54   2.000       .  S
Cd54         O56   2.080       .  S
O55          C62   1.275       .  A
C57          O61   1.271       .  A
C58          C78   1.471       .  S
C60         C636   1.469   1_545  S
C63         C138   1.474       .  S
C63          O64   1.276       .  A
C65          C66   1.411       .  A
C65          C70   1.410       .  A
C65         C488   1.474       .  S
C66          C67   1.402       .  A
C66          H71   1.084       .  S
C67          C68   1.400       .  A
C67         C354   1.472       .  S
C68          C69   1.398       .  A
C68          H72   1.085       .  S
C69          C70   1.400       .  A
C69         C291   1.471       .  S
C70          H73   1.084       .  S
C74          C75   1.411       .  A
C74          C79   1.410       .  A
C74         C255   1.475       .  S
C75          C76   1.402       .  A
C75          H80   1.084       .  S
C76          C77   1.400       .  A
C76         C121   1.472       .  S
C77          C78   1.398       .  A
C77          H81   1.085       .  S
C78          C79   1.400       .  A
C79          H82   1.084       .  S
O83         Zn89   2.010       .  S
O83          C99   1.273       .  A
C84         C261   1.471       .  S
C84         O100   1.271       .  A
C84         O353   1.274       .  A
O85         C354   1.275   1_554  A
O85         Cd92   2.089       .  S
O86         C104   1.274       .  A
O86         Cd95   2.068       .  S
O87         C101   1.276       .  A
O87         Cd91   2.075       .  S
O88          C99   1.275       .  A
O88         Cd91   2.078       .  S
Zn89        O100   1.996       .  S
Zn89        O102   1.993       .  S
Zn89         O94   1.930       .  S
O90         C357   1.274   1_554  A
O90         Cd95   2.067       .  S
Cd91         O93   2.074       .  S
Cd91         O94   2.000       .  S
Cd92         O96   2.071       .  S
Cd92        O105   2.078       .  S
Cd92        O350   2.010   1_554  S
O93         C103   1.276       .  A
O94        Cd348   2.010       .  S
O94        Cd351   2.007       .  S
Cd95         O97   2.083       .  S
Cd95        O350   2.007   1_554  S
O96         C359   1.276   1_554  A
O97         C340   1.274   1_554  A
C98         C323   1.472       .  S
C98         O102   1.271       .  A
C98         O341   1.275       .  A
C99         C127   1.459       .  S
C101        C549   1.469       .  S
C101        O346   1.274       .  A
C103        C193   1.474       .  S
C103        O352   1.276       .  A
C104        C122   1.459       .  S
C104        O105   1.276       .  A
O106       Zn112   2.009       .  S
O106        C122   1.272       .  A
C107        O123   1.271       .  A
C107        O120   1.274       .  A
O108        C121   1.274       .  A
O108       Cd115   2.088       .  S
O109        C127   1.274       .  A
O109       Cd118   2.068       .  S
O110        C124   1.276       .  A
O110       Cd114   2.075       .  S
O111        C122   1.275       .  A
O111       Cd114   2.079       .  S
Zn112       O123   1.995       .  S
Zn112       O125   1.993       .  S
Zn112       O117   1.929       .  S
O113        C124   1.274       .  A
O113       Cd118   2.067       .  S
Cd114       O116   2.074       .  S
Cd114       O117   2.000       .  S
Cd115       O119   2.071       .  S
Cd115       O128   2.078       .  S
Cd115       O117   2.010       .  S
O116        C126   1.276       .  A
O117       Cd118   2.007       .  S
Cd118       O120   2.083       .  S
O119        C126   1.276       .  A
C121        O125   1.271       .  A
C124        C572   1.469       .  S
C126        C202   1.474       .  S
C127        O128   1.276       .  A
C129        C130   1.410       .  A
C129        C134   1.411       .  A
C130        C131   1.400       .  A
C130        H135   1.084       .  S
C131        C132   1.398       .  A
C131        C227   1.471       .  S
C132        C645   1.400   1_545  A
C132        H136   1.085       .  S
C133        C644   1.400       .  A
C133        C646   1.402       .  A
C133        C162   1.472       .  S
C134        C645   1.402   1_545  A
C134        H649   1.084   1_545  S
H137        C646   1.084       .  S
C138        C139   1.410       .  A
C138        C143   1.411       .  A
C139        C140   1.400       .  A
C139        H144   1.084       .  S
C140        C141   1.398       .  A
C140        C250   1.471       .  S
C141        C654   1.400   1_545  A
C141        H145   1.085       .  S
C142        C653   1.400       .  A
C142        C655   1.402       .  A
C142        C185   1.472       .  S
C143        C654   1.402   1_545  A
C143        H658   1.084   1_545  S
H146        C655   1.084       .  S
O147       Zn153   2.009       .  S
O147        C163   1.272       .  A
C148        C195   1.471       .  S
C148        O161   1.274       .  A
C148        O420   1.271       .  A
O149        C162   1.274       .  A
O149       Cd156   2.088       .  S
O150        C168   1.274       .  A
O150       Cd159   2.068       .  S
O151        C421   1.276   1_554  A
O151       Cd155   2.075       .  S
O152        C163   1.275       .  A
O152       Cd155   2.079       .  S
Zn153       O166   1.993       .  S
Zn153      O1188   1.995       .  S
Zn153       O414   1.929   1_554  S
O154       C1189   1.274   1_455  A
O154      Cd1183   2.067   1_455  S
Cd155       O157   2.074       .  S
Cd155       O414   2.000   1_554  S
Cd156       O160   2.071       .  S
Cd156       O169   2.078       .  S
Cd156       O158   2.010       .  S
O157        C423   1.276   1_554  A
O158       Zn409   1.929       .  S
O158       Cd159   2.007       .  S
O158       Cd411   2.000       .  S
Cd159      O1178   2.067       .  S
Cd159      O1185   2.083       .  S
O160        C167   1.276       .  A
O161      Cd1183   2.083   1_455  S
C162        O422   1.271       .  A
C163        C191   1.459       .  S
O164      Zn1177   1.995   1_455  S
O164        C404   1.271   1_554  A
C165       C1253   1.469       .  S
C165        O407   1.276       .  A
C165       O1178   1.274       .  A
O166        C418   1.271   1_554  A
C167        C257   1.474       .  S
C167        O413   1.276       .  A
C168        C186   1.459       .  S
C168        O169   1.276       .  A
O170       Zn176   2.010       .  S
O170        C186   1.273       .  A
C171        C206   1.471       .  S
C171        O187   1.271       .  A
C171        O184   1.274       .  A
O172        C185   1.275       .  A
O172       Cd179   2.089       .  S
O173        C191   1.274       .  A
O173       Cd182   2.068       .  S
O174        C188   1.276       .  A
O174       Cd178   2.075       .  S
O175        C186   1.275       .  A
O175       Cd178   2.079       .  S
Zn176       O189   1.993       .  S
Zn176      O1211   1.996       .  S
Zn176       O181   1.930       .  S
O177       C1212   1.274   1_455  A
O177      Cd1206   2.067   1_455  S
Cd178       O180   2.074       .  S
Cd178       O181   2.000       .  S
Cd179       O183   2.071       .  S
Cd179       O192   2.079       .  S
Cd179       O181   2.010       .  S
O180        C190   1.276       .  A
O181       Cd182   2.007       .  S
Cd182      O1201   2.067       .  S
Cd182      O1208   2.083       .  S
O183        C190   1.276       .  A
O184      Cd1206   2.083   1_455  S
C185        O189   1.271       .  A
O187      Zn1200   1.996   1_455  S
C188       C1276   1.469       .  S
C188       O1201   1.274       .  A
C191        O192   1.276       .  A
C193        C194   1.410       .  A
C193        C198   1.410       .  A
C194        C195   1.400       .  A
C194        H199   1.084       .  S
C195        C196   1.398       .  A
C196        C197   1.399       .  A
C196        H200   1.085       .  S
C197        C198   1.401       .  A
C197        C738   1.472       .  S
C198        H201   1.084       .  S
C202        C203   1.410       .  A
C202        C207   1.410       .  A
C203        C204   1.402       .  A
C203        H208   1.084       .  S
C204        C205   1.399       .  A
C204        C761   1.472       .  S
C205        C206   1.398       .  A
C205        H209   1.085       .  S
C206        C207   1.400       .  A
C207        H210   1.084       .  S
O211      Zn1241   1.995       .  S
O211        C227   1.271       .  A
C212        C254   1.459       .  S
C212        O228   1.272       .  A
C212        O225   1.275       .  A
O213        C482   1.275   1_554  A
O213       Cd220   2.088       .  S
O214        C232   1.276       .  A
O214       Cd223   2.075       .  S
O215       C1509   1.274   1_554  A
O215      Cd1243   2.067       .  S
O216        C483   1.274   1_554  A
O216      Cd1243   2.083       .  S
Zn217       O228   2.009       .  S
Zn217       O230   1.993       .  S
Zn217      O1235   1.995   1_455  S
Zn217       O222   1.930       .  S
O218        C229   1.276       .  A
O218       Cd223   2.075       .  S
Cd219       O221   2.069       .  S
Cd219      O1239   2.067   1_455  S
Cd219      O1240   2.083   1_455  S
Cd219       O478   2.007   1_554  S
Cd220       O224   2.078       .  S
Cd220       O233   2.070       .  S
Cd220       O478   2.010   1_554  S
O221        C231   1.274       .  A
O222       Cd223   2.000       .  S
O222       Cd475   2.007       .  S
O222       Cd476   2.010       .  S
Cd223       O225   2.080       .  S
O224        C231   1.275       .  A
C226        C709   1.472   1_545  S
C226        O230   1.271       .  A
C226        O469   1.275       .  A
C227        O472   1.274       .  A
C229       C1189   1.469   1_455  S
C229       O1495   1.274   1_455  A
C231        C235   1.459       .  S
C232        C321   1.474       .  S
C232        O489   1.276       .  A
O233        C488   1.276   1_554  A
O234      Zn1264   1.995       .  S
O234        C250   1.271       .  A
C235        O251   1.272       .  A
C235        O248   1.275       .  A
O236        C249   1.274       .  A
O236       Cd243   2.088       .  S
O237        C255   1.276       .  A
O237       Cd246   2.075       .  S
O238       C1276   1.274       .  A
O238      Cd1266   2.067       .  S
O239        C250   1.274       .  A
O239      Cd1266   2.084       .  S
Zn240       O251   2.008       .  S
Zn240       O253   1.993       .  S
Zn240      O1258   1.995   1_455  S
Zn240       O245   1.930       .  S
O241        C252   1.276       .  A
O241       Cd246   2.075       .  S
Cd242       O244   2.069       .  S
Cd242      O1262   2.067   1_455  S
Cd242      O1263   2.084   1_455  S
Cd242       O245   2.007       .  S
Cd243       O247   2.078       .  S
Cd243       O256   2.070       .  S
Cd243       O245   2.010       .  S
O244        C254   1.274       .  A
O245       Cd246   2.000       .  S
Cd246       O248   2.080       .  S
O247        C254   1.275       .  A
C249        C716   1.472   1_545  S
C249        O253   1.271       .  A
C252       C1212   1.469   1_455  S
C252       O1262   1.274   1_455  A
C255        O256   1.276       .  A
C257        C262   1.410       .  A
C258        C259   1.402       .  A
C258        H263   1.084       .  S
C259        C260   1.399       .  A
C259        C290   1.472       .  S
C260        H264   1.085       .  S
C261        C262   1.400       .  A
C262        H265   1.084       .  S
C266        C267   1.410       .  A
C266        C271   1.410       .  A
C266        C446   1.474       .  S
C267        C268   1.400       .  A
C267        H272   1.084       .  S
C268        C269   1.398       .  A
C268        C363   1.471       .  S
C269        C270   1.399       .  A
C269        H273   1.085       .  S
C270        C271   1.401       .  A
C270        C313   1.472       .  S
C271        H274   1.084       .  S
O275       Zn281   1.995       .  S
C276        C318   1.459       .  S
C276        O292   1.272       .  A
C276        O289   1.275       .  A
O277        C290   1.274       .  A
O277       Cd284   2.088       .  S
O278       Cd287   2.075       .  S
O279        C293   1.274       .  A
O279       Cd283   2.067       .  S
O280        C291   1.274       .  A
O280       Cd283   2.084       .  S
Zn281       O292   2.008       .  S
Zn281       O294   1.993       .  S
O282       Cd287   2.075       .  S
Cd283       O285   2.069       .  S
Cd283       O286   2.007       .  S
Cd284       O288   2.078       .  S
Cd284       O297   2.070       .  S
Cd284       O286   2.010       .  S
O285        C295   1.274       .  A
Cd287       O289   2.080       .  S
O288        C295   1.275       .  A
C293        C869   1.469   1_545  S
C295        C299   1.459       .  S
C296        C385   1.475       .  S
C296        O297   1.276       .  A
O298       Zn304   1.995       .  S
O298        C314   1.271       .  A
C299        O315   1.272       .  A
C299        O312   1.275       .  A
O300        C313   1.275       .  A
O300       Cd307   2.088       .  S
O301        C319   1.276       .  A
O301       Cd310   2.075       .  S
O302        C316   1.274       .  A
O302       Cd306   2.067       .  S
O303        C314   1.274       .  A
O303       Cd306   2.083       .  S
Zn304       O315   2.009       .  S
Zn304       O317   1.993       .  S
Zn304       O309   1.930       .  S
O305        C316   1.276       .  A
O305       Cd310   2.075       .  S
Cd306       O308   2.069       .  S
Cd306       O309   2.007       .  S
Cd307       O311   2.078       .  S
Cd307       O320   2.070       .  S
Cd307       O309   2.010       .  S
O308        C318   1.274       .  A
O309       Cd310   2.000       .  S
Cd310       O312   2.080       .  S
O311        C318   1.275       .  A
C313        O317   1.271       .  A
C314        C334   1.471       .  S
C316        C892   1.469   1_545  S
C319        C394   1.474       .  S
C319        O320   1.276       .  A
C321        C322   1.411       .  A
C321        C326   1.410       .  A
C322        C323   1.402       .  A
C322        H327   1.084       .  S
C323        C324   1.400       .  A
C324        C325   1.398       .  A
C324        H328   1.085       .  S
C325        C326   1.400       .  A
C326        H329   1.084       .  S
C330        C331   1.411       .  A
C330        C335   1.410       .  A
C330        C511   1.475       .  S
C331        C332   1.402       .  A
C331        H336   1.084       .  S
C332        C333   1.400       .  A
C332        C377   1.472       .  S
C333        C334   1.398       .  A
C333        H337   1.085       .  S
C334        C335   1.400       .  A
C335        H338   1.084       .  S
O339       Zn345   2.010       .  S
O339        C355   1.273       .  A
C340        O356   1.271       .  A
O341       Cd348   2.089       .  S
O342        C360   1.274       .  A
O342       Cd351   2.068       .  S
O343        C357   1.276       .  A
O343       Cd347   2.075       .  S
O344        C355   1.275       .  A
O344       Cd347   2.078       .  S
Zn345       O356   1.996       .  S
Zn345       O358   1.993       .  S
Zn345       O350   1.930       .  S
O346       Cd351   2.067       .  S
Cd347       O349   2.074       .  S
Cd347       O350   2.000       .  S
Cd348       O352   2.071       .  S
Cd348       O361   2.078       .  S
O349        C359   1.276       .  A
Cd351       O353   2.083       .  S
C354        O358   1.271       .  A
C355        C383   1.459       .  S
C357        C805   1.469       .  S
C359        C449   1.474       .  S
C360        C378   1.459       .  S
C360        O361   1.276       .  A
O362       Zn368   2.009       .  S
O362        C378   1.272       .  A
C363        O379   1.271       .  A
C363        O376   1.274       .  A
O364        C377   1.274       .  A
O364       Cd371   2.088       .  S
O365        C383   1.274       .  A
O365       Cd374   2.068       .  S
O366        C380   1.276       .  A
O366       Cd370   2.075       .  S
O367        C378   1.275       .  A
O367       Cd370   2.079       .  S
Zn368       O379   1.995       .  S
Zn368       O381   1.993       .  S
Zn368       O373   1.929       .  S
O369        C380   1.274       .  A
O369       Cd374   2.067       .  S
Cd370       O372   2.074       .  S
Cd370       O373   2.000       .  S
Cd371       O375   2.071       .  S
Cd371       O384   2.078       .  S
Cd371       O373   2.010       .  S
O372        C382   1.276       .  A
O373       Cd374   2.007       .  S
Cd374       O376   2.083       .  S
O375        C382   1.276       .  A
C377        O381   1.271       .  A
C380        C828   1.469       .  S
C382        C458   1.474       .  S
C383        O384   1.276       .  A
C385        C386   1.410       .  A
C385        C390   1.411       .  A
C386        C387   1.400       .  A
C386        H391   1.084       .  S
C387        C388   1.398       .  A
C387        C483   1.471       .  S
C388        C901   1.400   1_545  A
C388        H392   1.085       .  S
C389        C900   1.400       .  A
C389        C902   1.402       .  A
C389        C418   1.472       .  S
C390        C901   1.402   1_545  A
C390        H905   1.084   1_545  S
H393        C902   1.084       .  S
C394        C395   1.410       .  A
C394        C399   1.411       .  A
C395        C396   1.400       .  A
C395        H400   1.084       .  S
C396        C397   1.398       .  A
C396        C506   1.471       .  S
C397        C910   1.400   1_545  A
C397        H401   1.085       .  S
C398        C909   1.400       .  A
C398        C911   1.402       .  A
C398        C441   1.472       .  S
C399        C910   1.402   1_545  A
C399        H914   1.084   1_545  S
H402        C911   1.084       .  S
O403       Zn409   2.009       .  S
O403        C419   1.272       .  A
C404        C451   1.471       .  S
C404        O417   1.274       .  A
O405        C418   1.274       .  A
O405       Cd412   2.088       .  S
O406        C424   1.274       .  A
O406       Cd415   2.068       .  S
O407       Cd411   2.075       .  S
O408        C419   1.275       .  A
O408       Cd411   2.079       .  S
Zn409      O1444   1.995       .  S
Zn409       O422   1.993       .  S
O410       C1445   1.274   1_455  A
O410      Cd1439   2.067   1_455  S
Cd411       O413   2.074       .  S
Cd412       O416   2.071       .  S
Cd412       O425   2.078       .  S
Cd412       O414   2.010       .  S
O414       Cd415   2.007       .  S
Cd415      O1434   2.067       .  S
Cd415      O1441   2.083       .  S
O416        C423   1.276       .  A
O417      Cd1439   2.083   1_455  S
C419        C447   1.459       .  S
O420      Zn1433   1.995   1_455  S
C421       C1509   1.469       .  S
C421       O1434   1.274       .  A
C424        C442   1.459       .  S
C424        O425   1.276       .  A
O426       Zn432   2.010       .  S
O426        C442   1.273       .  A
C427        C462   1.471       .  S
C427        O443   1.271       .  A
C427        O440   1.274       .  A
O428        C441   1.275       .  A
O428       Cd435   2.089       .  S
O429        C447   1.274       .  A
O429       Cd438   2.068       .  S
O430        C444   1.276       .  A
O430       Cd434   2.075       .  S
O431        C442   1.275       .  A
O431       Cd434   2.079       .  S
Zn432      O1467   1.996       .  S
Zn432       O445   1.993       .  S
Zn432       O437   1.930       .  S
O433       C1468   1.274   1_455  A
O433      Cd1462   2.067   1_455  S
Cd434       O436   2.074       .  S
Cd434       O437   2.000       .  S
Cd435       O439   2.071       .  S
Cd435       O448   2.079       .  S
Cd435       O437   2.010       .  S
O436        C446   1.276       .  A
O437       Cd438   2.007       .  S
Cd438      O1457   2.067       .  S
Cd438      O1464   2.083       .  S
O439        C446   1.276       .  A
O440      Cd1462   2.083   1_455  S
C441        O445   1.271       .  A
O443      Zn1456   1.996   1_455  S
C444       C1532   1.469       .  S
C444       O1457   1.274       .  A
C447        O448   1.276       .  A
C449        C450   1.410       .  A
C449        C454   1.410       .  A
C450        C451   1.400       .  A
C450        H455   1.084       .  S
C451        C452   1.398       .  A
C452        C453   1.400       .  A
C452        H456   1.085       .  S
C453        C454   1.401       .  A
C453        C994   1.472       .  S
C454        H457   1.084       .  S
C458        C459   1.410       .  A
C458        C463   1.410       .  A
C459        C460   1.402       .  A
C459        H464   1.084       .  S
C460        C461   1.399       .  A
C460       C1017   1.472       .  S
C461        C462   1.398       .  A
C461        H465   1.085       .  S
C462        C463   1.400       .  A
C463        H466   1.084       .  S
O467      Zn1497   1.995       .  S
O467        C483   1.271       .  A
C468        C510   1.459       .  S
C468        O484   1.272       .  A
C468        O481   1.275       .  A
O469       Cd476   2.088       .  S
O470        C488   1.276       .  A
O470       Cd479   2.075       .  S
O471       C1253   1.274       .  A
O471      Cd1499   2.067       .  S
O472      Cd1499   2.083       .  S
Zn473      O1491   1.995   1_455  S
Zn473       O484   2.009       .  S
Zn473       O486   1.993       .  S
Zn473       O478   1.930       .  S
O474        C485   1.276       .  A
O474       Cd479   2.075       .  S
Cd475      O1495   2.067   1_455  S
Cd475      O1496   2.083   1_455  S
Cd475       O477   2.069       .  S
Cd476       O480   2.078       .  S
Cd476       O489   2.070       .  S
O477        C487   1.274       .  A
O478       Cd479   2.000       .  S
Cd479       O481   2.080       .  S
O480        C487   1.275       .  A
C482        C965   1.472   1_545  S
C482        O486   1.271       .  A
C485       C1445   1.469   1_455  S
C485       O1239   1.274   1_456  A
C487        C491   1.459       .  S
O490      Zn1520   1.995       .  S
O490        C506   1.271       .  A
C491        O507   1.272       .  A
C491        O504   1.275       .  A
O492        C505   1.274       .  A
O492       Cd499   2.088       .  S
O493        C511   1.276       .  A
O493       Cd502   2.075       .  S
O494       C1532   1.274       .  A
O494      Cd1522   2.067       .  S
O495        C506   1.274       .  A
O495      Cd1522   2.084       .  S
Zn496      O1514   1.995   1_455  S
Zn496       O507   2.008       .  S
Zn496       O509   1.993       .  S
Zn496       O501   1.930       .  S
O497        C508   1.276       .  A
O497       Cd502   2.075       .  S
Cd498      O1518   2.067   1_455  S
Cd498      O1519   2.084   1_455  S
Cd498       O500   2.069       .  S
Cd498       O501   2.007       .  S
Cd499       O503   2.078       .  S
Cd499       O512   2.070       .  S
Cd499       O501   2.010       .  S
O500        C510   1.274       .  A
O501       Cd502   2.000       .  S
Cd502       O504   2.080       .  S
O503        C510   1.275       .  A
C505        C972   1.472   1_545  S
C505        O509   1.271       .  A
C508       C1468   1.469   1_455  S
C508       O1518   1.274   1_455  A
C511        O512   1.276       .  A
C513        C770   1.410       .  A
C513        C518   1.410       .  A
C513        C935   1.474       .  S
C514        C769   1.410       .  A
C514        C515   1.402       .  A
C514        H519   1.084       .  S
C515        C516   1.399       .  A
C515        C546   1.472       .  S
C516        C773   1.398       .  A
C516        H520   1.085       .  S
C517        C772   1.398       .  A
C517        C518   1.400       .  A
C517        C852   1.471       .  S
C518        H521   1.084       .  S
C522        C523   1.410       .  A
C522        C527   1.410       .  A
C522        C702   1.474       .  S
C523        C524   1.400       .  A
C523        H528   1.084       .  S
C524        C525   1.398       .  A
C524        C619   1.471       .  S
C525        C526   1.399       .  A
C525        H529   1.085       .  S
C526        C527   1.401       .  A
C526        C569   1.472       .  S
C527        H530   1.084       .  S
O531       Zn537   1.995       .  S
O531        C803   1.271   1_554  A
C532        C574   1.459       .  S
C532        O548   1.272       .  A
C532        O545   1.275       .  A
O533        C546   1.274       .  A
O533       Cd540   2.088       .  S
O534        C808   1.276   1_554  A
O534       Cd543   2.075       .  S
O535        C549   1.274       .  A
O535       Cd539   2.067       .  S
O536        C547   1.274       .  A
O536       Cd539   2.084       .  S
Zn537       O548   2.008       .  S
Zn537       O550   1.993       .  S
Zn537       O798   1.930   1_554  S
O538        C805   1.276   1_554  A
O538       Cd543   2.075       .  S
Cd539       O541   2.069       .  S
Cd539       O542   2.007       .  S
Cd540       O544   2.078       .  S
Cd540       O553   2.070       .  S
Cd540       O542   2.010       .  S
O541        C551   1.274       .  A
O542       Zn793   1.930       .  S
O542       Cd799   2.000       .  S
Cd543       O545   2.080       .  S
Cd543       O798   2.000   1_554  S
O544        C551   1.275       .  A
C546        O806   1.271       .  A
C547        C837   1.471       .  S
C547        O787   1.271       .  A
C549        O794   1.276       .  A
O550        C802   1.271   1_554  A
C551        C555   1.459       .  S
C552        C641   1.475       .  S
C552        O790   1.276       .  A
C552        O553   1.276       .  A
O554       Zn560   1.995       .  S
O554        C570   1.271       .  A
C555        O571   1.272       .  A
C555        O568   1.275       .  A
O556        C569   1.275       .  A
O556       Cd563   2.088       .  S
O557        C575   1.276       .  A
O557       Cd566   2.075       .  S
O558        C572   1.274       .  A
O558       Cd562   2.067       .  S
O559        C570   1.274       .  A
O559       Cd562   2.083       .  S
Zn560       O571   2.009       .  S
Zn560       O573   1.993       .  S
Zn560       O565   1.930       .  S
O561        C572   1.276       .  A
O561       Cd566   2.075       .  S
Cd562       O564   2.069       .  S
Cd562       O565   2.007       .  S
Cd563       O567   2.078       .  S
Cd563       O576   2.070       .  S
Cd563       O565   2.010       .  S
O564        C574   1.274       .  A
O565       Cd566   2.000       .  S
Cd566       O568   2.080       .  S
O567        C574   1.275       .  A
C569        O573   1.271       .  A
C570        C590   1.471       .  S
C575        C650   1.474       .  S
C575        O576   1.276       .  A
C577        C578   1.411       .  A
C577        C582   1.410       .  A
C577       C1000   1.474       .  S
C578        C579   1.402       .  A
C578        H583   1.084       .  S
C579        C580   1.400       .  A
C579        C866   1.472       .  S
C580        C581   1.398       .  A
C580        H584   1.085       .  S
C581        C582   1.400       .  A
C581        C803   1.471       .  S
C582        H585   1.084       .  S
C586        C587   1.411       .  A
C586        C591   1.410       .  A
C586        C767   1.475       .  S
C587        C588   1.402       .  A
C587        H592   1.084       .  S
C588        C589   1.400       .  A
C588        C633   1.472       .  S
C589        C590   1.398       .  A
C589        H593   1.085       .  S
C590        C591   1.400       .  A
C591        H594   1.084       .  S
O595       Zn601   2.010       .  S
O595        C611   1.273       .  A
C596        C773   1.471       .  S
C596        O612   1.271       .  A
C596        O865   1.274       .  A
O597        C866   1.275   1_554  A
O597       Cd604   2.089       .  S
O598        C616   1.274       .  A
O598       Cd607   2.068       .  S
O599        C613   1.276       .  A
O599       Cd603   2.075       .  S
O600        C611   1.275       .  A
O600       Cd603   2.078       .  S
Zn601       O612   1.996       .  S
Zn601       O614   1.993       .  S
Zn601       O606   1.930       .  S
O602        C869   1.274   1_554  A
O602       Cd607   2.067       .  S
Cd603       O605   2.074       .  S
Cd603       O606   2.000       .  S
Cd604       O608   2.071       .  S
Cd604       O617   2.078       .  S
Cd604       O862   2.010   1_554  S
O605        C615   1.276       .  A
O606       Cd860   2.010       .  S
O606       Cd863   2.007       .  S
Cd607       O609   2.083       .  S
Cd607       O862   2.007   1_554  S
O608        C871   1.276   1_554  A
O609        C852   1.274   1_554  A
C610        C835   1.472       .  S
C610        O853   1.275       .  A
C610        O614   1.271       .  A
C611        C639   1.459       .  S
C613        O858   1.274       .  A
C615        C705   1.474       .  S
C615        O864   1.276       .  A
C616        C634   1.459       .  S
C616        O617   1.276       .  A
O618       Zn624   2.009       .  S
O618        C634   1.272       .  A
C619        O635   1.271       .  A
C619        O632   1.274       .  A
O620        C633   1.274       .  A
O620       Cd627   2.088       .  S
O621        C639   1.274       .  A
O621       Cd630   2.068       .  S
O622        C636   1.276       .  A
O622       Cd626   2.075       .  S
O623        C634   1.275       .  A
O623       Cd626   2.079       .  S
Zn624       O635   1.995       .  S
Zn624       O637   1.993       .  S
Zn624       O629   1.929       .  S
O625        C636   1.274       .  A
O625       Cd630   2.067       .  S
Cd626       O628   2.074       .  S
Cd626       O629   2.000       .  S
Cd627       O631   2.071       .  S
Cd627       O640   2.078       .  S
Cd627       O629   2.010       .  S
O628        C638   1.276       .  A
O629       Cd630   2.007       .  S
Cd630       O632   2.083       .  S
O631        C638   1.276       .  A
C633        O637   1.271       .  A
C638        C714   1.474       .  S
C639        O640   1.276       .  A
C641        C642   1.410       .  A
C641        C646   1.411       .  A
C642        C643   1.400       .  A
C642        H647   1.084       .  S
C643        C644   1.398       .  A
C643        C739   1.471       .  S
C644        H648   1.085       .  S
C645        C674   1.472       .  S
C650        C651   1.410       .  A
C650        C655   1.411       .  A
C651        C652   1.400       .  A
C651        H656   1.084       .  S
C652        C653   1.398       .  A
C652        C762   1.471       .  S
C653        H657   1.085       .  S
C654        C697   1.472       .  S
O659       Zn665   2.009       .  S
O659        C675   1.272       .  A
C660        C707   1.471       .  S
C660        O932   1.271       .  A
C660        O673   1.274       .  A
O661        C674   1.274       .  A
O661       Cd668   2.088       .  S
O662        C680   1.274       .  A
O662       Cd671   2.068       .  S
O663        C933   1.276   1_554  A
O663       Cd667   2.075       .  S
O664        C675   1.275       .  A
O664       Cd667   2.078       .  S
Zn665      O1700   1.995       .  S
Zn665       O678   1.993       .  S
Zn665       O926   1.929   1_554  S
O666       C1701   1.274   1_455  A
O666      Cd1695   2.067   1_455  S
Cd667       O669   2.074       .  S
Cd667       O926   2.000   1_554  S
Cd668       O672   2.071       .  S
Cd668       O681   2.078       .  S
Cd668       O670   2.010       .  S
O669        C935   1.276   1_554  A
O670       Zn921   1.929       .  S
O670       Cd923   2.000       .  S
O670       Cd671   2.007       .  S
Cd671      O1690   2.067       .  S
Cd671      O1697   2.083       .  S
O672        C679   1.276       .  A
O673      Cd1695   2.083   1_455  S
C674        O934   1.271       .  A
C675        C703   1.459       .  S
O676      Zn1689   1.995   1_455  S
O676        C916   1.271   1_554  A
C677       C1765   1.469       .  S
C677        O919   1.276       .  A
C677       O1690   1.274       .  A
O678        C930   1.271   1_554  A
C679        C769   1.474       .  S
C679        O925   1.276       .  A
C680        C698   1.459       .  S
C680        O681   1.276       .  A
O682       Zn688   2.010       .  S
O682        C698   1.273       .  A
C683        C718   1.471       .  S
C683        O699   1.271       .  A
C683        O696   1.274       .  A
O684        C697   1.275       .  A
O684       Cd691   2.089       .  S
O685        C703   1.274       .  A
O685       Cd694   2.068       .  S
O686        C700   1.276       .  A
O686       Cd690   2.075       .  S
O687        C698   1.275       .  A
O687       Cd690   2.079       .  S
Zn688      O1723   1.996       .  S
Zn688       O701   1.993       .  S
Zn688       O693   1.930       .  S
O689       C1724   1.274   1_455  A
O689      Cd1718   2.067   1_455  S
Cd690       O692   2.074       .  S
Cd690       O693   2.000       .  S
Cd691       O695   2.071       .  S
Cd691       O704   2.079       .  S
Cd691       O693   2.010       .  S
O692        C702   1.276       .  A
O693       Cd694   2.007       .  S
Cd694      O1713   2.067       .  S
Cd694      O1720   2.083       .  S
O695        C702   1.276       .  A
O696      Cd1718   2.083   1_455  S
C697        O701   1.271       .  A
O699      Zn1712   1.996   1_455  S
C700       C1788   1.469       .  S
C700       O1713   1.274       .  A
C703        O704   1.276       .  A
C705        C706   1.410       .  A
C705        C710   1.410       .  A
C706        C707   1.400       .  A
C706        H711   1.084       .  S
C707        C708   1.398       .  A
C708        C709   1.399       .  A
C708        H712   1.085       .  S
C709        C710   1.401       .  A
C710        H713   1.084       .  S
C714        C715   1.410       .  A
C714        C719   1.410       .  A
C715        C716   1.402       .  A
C715        H720   1.084       .  S
C716        C717   1.399       .  A
C717        C718   1.398       .  A
C717        H721   1.085       .  S
C718        C719   1.400       .  A
C719        H722   1.084       .  S
O723      Zn1753   1.995       .  S
O723        C739   1.271       .  A
C724        C766   1.459       .  S
C724        O740   1.272       .  A
C724        O737   1.275       .  A
O725        C994   1.275   1_554  A
O725       Cd732   2.088       .  S
O726        C744   1.276       .  A
O726       Cd735   2.075       .  S
O727       C2021   1.274   1_554  A
O727      Cd1755   2.067       .  S
O728        C995   1.274   1_554  A
O728      Cd1755   2.083       .  S
Zn729      O1747   1.995   1_455  S
Zn729       O740   2.009       .  S
Zn729       O742   1.993       .  S
Zn729       O734   1.930       .  S
O730        C741   1.276       .  A
O730       Cd735   2.075       .  S
Cd731      O1751   2.067   1_455  S
Cd731      O1752   2.083   1_455  S
Cd731       O733   2.069       .  S
Cd731       O990   2.007   1_554  S
Cd732       O736   2.078       .  S
Cd732       O745   2.070       .  S
Cd732       O990   2.010   1_554  S
O733        C743   1.274       .  A
O734       Cd987   2.007       .  S
O734       Cd988   2.010       .  S
O734       Cd735   2.000       .  S
Cd735       O737   2.080       .  S
O736        C743   1.275       .  A
C738        O981   1.275       .  A
C738        O742   1.271       .  A
C739        O984   1.274       .  A
C741       C1701   1.469   1_455  S
C741       O2007   1.274   1_455  A
C743        C747   1.459       .  S
C744        C833   1.474       .  S
C744       O1001   1.276       .  A
O745       C1000   1.276   1_554  A
O746      Zn1776   1.995       .  S
O746        C762   1.271       .  A
C747        O763   1.272       .  A
C747        O760   1.275       .  A
O748        C761   1.274       .  A
O748       Cd755   2.088       .  S
O749        C767   1.276       .  A
O749       Cd758   2.075       .  S
O750       C1788   1.274       .  A
O750      Cd1778   2.067       .  S
O751        C762   1.274       .  A
O751      Cd1778   2.084       .  S
Zn752      O1770   1.995   1_455  S
Zn752       O763   2.008       .  S
Zn752       O765   1.993       .  S
Zn752       O757   1.930       .  S
O753        C764   1.276       .  A
O753       Cd758   2.075       .  S
Cd754      O1774   2.067   1_455  S
Cd754      O1775   2.084   1_455  S
Cd754       O756   2.069       .  S
Cd754       O757   2.007       .  S
Cd755       O759   2.078       .  S
Cd755       O768   2.070       .  S
Cd755       O757   2.010       .  S
O756        C766   1.274       .  A
O757       Cd758   2.000       .  S
Cd758       O760   2.080       .  S
O759        C766   1.275       .  A
C761        O765   1.271       .  A
C764       C1724   1.469   1_455  S
C764       O1774   1.274   1_455  A
C767        O768   1.276       .  A
C769        C774   1.410       .  A
C770        C771   1.402       .  A
C770        H775   1.084       .  S
C771        C772   1.399       .  A
C771        C802   1.472       .  S
C772        H776   1.085       .  S
C773        C774   1.400       .  A
C774        H777   1.084       .  S
C778        C779   1.410       .  A
C778        C783   1.410       .  A
C778        C958   1.474       .  S
C779        C780   1.400       .  A
C779        H784   1.084       .  S
C780        C781   1.398       .  A
C780        C875   1.471       .  S
C781        C782   1.399       .  A
C781        H785   1.085       .  S
C782        C783   1.401       .  A
C782        C825   1.472       .  S
C783        H786   1.084       .  S
O787       Zn793   1.995       .  S
C788        C830   1.459       .  S
C788        O804   1.272       .  A
C788        O801   1.275       .  A
O789        C802   1.274       .  A
O789       Cd796   2.088       .  S
O790       Cd799   2.075       .  S
O791        C805   1.274       .  A
O791       Cd795   2.067       .  S
O792        C803   1.274       .  A
O792       Cd795   2.084       .  S
Zn793       O804   2.008       .  S
Zn793       O806   1.993       .  S
O794       Cd799   2.075       .  S
Cd795       O797   2.069       .  S
Cd795       O798   2.007       .  S
Cd796       O800   2.078       .  S
Cd796       O809   2.070       .  S
Cd796       O798   2.010       .  S
O797        C807   1.274       .  A
Cd799       O801   2.080       .  S
O800        C807   1.275       .  A
C807        C811   1.459       .  S
C808        C897   1.475       .  S
C808        O809   1.276       .  A
O810       Zn816   1.995       .  S
O810        C826   1.271       .  A
C811        O827   1.272       .  A
C811        O824   1.275       .  A
O812        C825   1.275       .  A
O812       Cd819   2.088       .  S
O813        C831   1.276       .  A
O813       Cd822   2.075       .  S
O814        C828   1.274       .  A
O814       Cd818   2.067       .  S
O815        C826   1.274       .  A
O815       Cd818   2.083       .  S
Zn816       O827   2.009       .  S
Zn816       O829   1.993       .  S
Zn816       O821   1.930       .  S
O817        C828   1.276       .  A
O817       Cd822   2.075       .  S
Cd818       O820   2.069       .  S
Cd818       O821   2.007       .  S
Cd819       O823   2.078       .  S
Cd819       O832   2.070       .  S
Cd819       O821   2.010       .  S
O820        C830   1.274       .  A
O821       Cd822   2.000       .  S
Cd822       O824   2.080       .  S
O823        C830   1.275       .  A
C825        O829   1.271       .  A
C826        C846   1.471       .  S
C831        C906   1.474       .  S
C831        O832   1.276       .  A
C833        C834   1.411       .  A
C833        C838   1.410       .  A
C834        C835   1.402       .  A
C834        H839   1.084       .  S
C835        C836   1.400       .  A
C836        C837   1.398       .  A
C836        H840   1.085       .  S
C837        C838   1.400       .  A
C838        H841   1.084       .  S
C842        C843   1.411       .  A
C842        C847   1.410       .  A
C842       C1023   1.475       .  S
C843        C844   1.402       .  A
C843        H848   1.084       .  S
C844        C845   1.400       .  A
C844        C889   1.472       .  S
C845        C846   1.398       .  A
C845        H849   1.085       .  S
C846        C847   1.400       .  A
C847        H850   1.084       .  S
O851       Zn857   2.010       .  S
O851        C867   1.273       .  A
C852        O868   1.271       .  A
O853       Cd860   2.089       .  S
O854        C872   1.274       .  A
O854       Cd863   2.068       .  S
O855        C869   1.276       .  A
O855       Cd859   2.075       .  S
O856        C867   1.275       .  A
O856       Cd859   2.078       .  S
Zn857       O868   1.996       .  S
Zn857       O870   1.993       .  S
Zn857       O862   1.930       .  S
O858       Cd863   2.067       .  S
Cd859       O861   2.074       .  S
Cd859       O862   2.000       .  S
Cd860       O864   2.071       .  S
Cd860       O873   2.078       .  S
O861        C871   1.276       .  A
Cd863       O865   2.083       .  S
C866        O870   1.271       .  A
C867        C895   1.459       .  S
C871        C961   1.474       .  S
C872        C890   1.459       .  S
C872        O873   1.276       .  A
O874       Zn880   2.009       .  S
O874        C890   1.272       .  A
C875        O891   1.271       .  A
C875        O888   1.274       .  A
O876        C889   1.274       .  A
O876       Cd883   2.088       .  S
O877        C895   1.274       .  A
O877       Cd886   2.068       .  S
O878        C892   1.276       .  A
O878       Cd882   2.075       .  S
O879        C890   1.275       .  A
O879       Cd882   2.079       .  S
Zn880       O891   1.995       .  S
Zn880       O893   1.993       .  S
Zn880       O885   1.929       .  S
O881        C892   1.274       .  A
O881       Cd886   2.067       .  S
Cd882       O884   2.074       .  S
Cd882       O885   2.000       .  S
Cd883       O887   2.071       .  S
Cd883       O896   2.078       .  S
Cd883       O885   2.010       .  S
O884        C894   1.276       .  A
O885       Cd886   2.007       .  S
Cd886       O888   2.083       .  S
O887        C894   1.276       .  A
C889        O893   1.271       .  A
C894        C970   1.474       .  S
C895        O896   1.276       .  A
C897        C898   1.410       .  A
C897        C902   1.411       .  A
C898        C899   1.400       .  A
C898        H903   1.084       .  S
C899        C900   1.398       .  A
C899        C995   1.471       .  S
C900        H904   1.085       .  S
C901        C930   1.472       .  S
C906        C907   1.410       .  A
C906        C911   1.411       .  A
C907        C908   1.400       .  A
C907        H912   1.084       .  S
C908        C909   1.398       .  A
C908       C1018   1.471       .  S
C909        H913   1.085       .  S
C910        C953   1.472       .  S
O915       Zn921   2.009       .  S
O915        C931   1.272       .  A
C916        C963   1.471       .  S
C916        O929   1.274       .  A
O917        C930   1.274       .  A
O917       Cd924   2.088       .  S
O918        C936   1.274       .  A
O918       Cd927   2.068       .  S
O919       Cd923   2.075       .  S
O920        C931   1.275       .  A
O920       Cd923   2.079       .  S
Zn921      O1956   1.995       .  S
Zn921       O934   1.993       .  S
O922       C1957   1.274   1_455  A
O922      Cd1951   2.067   1_455  S
Cd923       O925   2.074       .  S
Cd924       O928   2.071       .  S
Cd924       O937   2.078       .  S
Cd924       O926   2.010       .  S
O926       Cd927   2.007       .  S
Cd927      O1946   2.067       .  S
Cd927      O1953   2.083       .  S
O928        C935   1.276       .  A
O929      Cd1951   2.083   1_455  S
C931        C959   1.459       .  S
O932      Zn1945   1.995   1_455  S
C933       C2021   1.469       .  S
C933       O1946   1.274       .  A
C936        C954   1.459       .  S
C936        O937   1.276       .  A
O938       Zn944   2.010       .  S
O938        C954   1.273       .  A
C939        C974   1.471       .  S
C939        O955   1.271       .  A
C939        O952   1.274       .  A
O940        C953   1.275       .  A
O940       Cd947   2.089       .  S
O941        C959   1.274       .  A
O941       Cd950   2.068       .  S
O942        C956   1.276       .  A
O942       Cd946   2.075       .  S
O943        C954   1.275       .  A
O943       Cd946   2.079       .  S
Zn944      O1979   1.996       .  S
Zn944       O957   1.993       .  S
Zn944       O949   1.930       .  S
O945       C1980   1.274   1_455  A
O945      Cd1974   2.067   1_455  S
Cd946       O948   2.074       .  S
Cd946       O949   2.000       .  S
Cd947       O951   2.071       .  S
Cd947       O960   2.079       .  S
Cd947       O949   2.010       .  S
O948        C958   1.276       .  A
O949       Cd950   2.007       .  S
Cd950      O1969   2.067       .  S
Cd950      O1976   2.083       .  S
O951        C958   1.276       .  A
O952      Cd1974   2.083   1_455  S
C953        O957   1.271       .  A
O955      Zn1968   1.996   1_455  S
C956       C2044   1.469       .  S
C956       O1969   1.274       .  A
C959        O960   1.276       .  A
C961        C962   1.410       .  A
C961        C966   1.410       .  A
C962        C963   1.400       .  A
C962        H967   1.084       .  S
C963        C964   1.398       .  A
C964        C965   1.400       .  A
C964        H968   1.085       .  S
C965        C966   1.401       .  A
C966        H969   1.084       .  S
C970        C971   1.410       .  A
C970        C975   1.410       .  A
C971        C972   1.402       .  A
C971        H976   1.084       .  S
C972        C973   1.399       .  A
C973        C974   1.398       .  A
C973        H977   1.085       .  S
C974        C975   1.400       .  A
C975        H978   1.084       .  S
O979      Zn2009   1.995       .  S
O979        C995   1.271       .  A
C980       C1022   1.459       .  S
C980        O996   1.272       .  A
C980        O993   1.275       .  A
O981       Cd988   2.088       .  S
O982       C1000   1.276       .  A
O982       Cd991   2.075       .  S
O983       C1765   1.274       .  A
O983      Cd2011   2.067       .  S
O984      Cd2011   2.083       .  S
Zn985      O2003   1.995   1_455  S
Zn985       O996   2.009       .  S
Zn985       O998   1.993       .  S
Zn985       O990   1.930       .  S
O986        C997   1.276       .  A
O986       Cd991   2.075       .  S
Cd987      O2007   2.067   1_455  S
Cd987      O2008   2.083   1_455  S
Cd987       O989   2.069       .  S
Cd988       O992   2.078       .  S
Cd988      O1001   2.070       .  S
O989        C999   1.274       .  A
O990       Cd991   2.000       .  S
Cd991       O993   2.080       .  S
O992        C999   1.275       .  A
C994        O998   1.271       .  A
C997       C1957   1.469   1_455  S
C997       O1751   1.274   1_456  A
C999       C1003   1.459       .  S
O1002     Zn2032   1.995       .  S
O1002      C1018   1.271       .  A
C1003      O1019   1.272       .  A
C1003      O1016   1.275       .  A
O1004      C1017   1.274       .  A
O1004     Cd1011   2.088       .  S
O1005      C1023   1.276       .  A
O1005     Cd1014   2.075       .  S
O1006      C2044   1.274       .  A
O1006     Cd2034   2.067       .  S
O1007      C1018   1.274       .  A
O1007     Cd2034   2.084       .  S
Zn1008     O2026   1.995   1_455  S
Zn1008     O1019   2.008       .  S
Zn1008     O1021   1.993       .  S
Zn1008     O1013   1.930       .  S
O1009      C1020   1.276       .  A
O1009     Cd1014   2.075       .  S
Cd1010     O2030   2.067   1_455  S
Cd1010     O2031   2.084   1_455  S
Cd1010     O1012   2.069       .  S
Cd1010     O1013   2.007       .  S
Cd1011     O1015   2.078       .  S
Cd1011     O1024   2.070       .  S
Cd1011     O1013   2.010       .  S
O1012      C1022   1.274       .  A
O1013     Cd1014   2.000       .  S
Cd1014     O1016   2.080       .  S
O1015      C1022   1.275       .  A
C1017      O1021   1.271       .  A
C1020      C1980   1.469   1_455  S
C1020      O2030   1.274   1_455  A
C1023      O1024   1.276       .  A
C1025      C1282   1.410       .  A
C1025      C1030   1.410       .  A
C1025      C1447   1.474       .  S
C1026      C1281   1.410       .  A
C1026      C1027   1.402       .  A
C1026      H1031   1.084       .  S
C1027      C1028   1.399       .  A
C1027      C1058   1.472       .  S
C1028      C1285   1.398       .  A
C1028      H1032   1.085       .  S
C1029      C1284   1.398       .  A
C1029      C1030   1.400       .  A
C1029      C1364   1.471       .  S
C1030      H1033   1.084       .  S
C1034      C1035   1.410       .  A
C1034      C1039   1.410       .  A
C1034      C1214   1.474       .  S
C1035      C1036   1.400       .  A
C1035      H1040   1.084       .  S
C1036      C1037   1.398       .  A
C1036      C1131   1.471       .  S
C1037      C1038   1.399       .  A
C1037      H1041   1.085       .  S
C1038      C1039   1.401       .  A
C1038      C1081   1.472       .  S
C1039      H1042   1.084       .  S
O1043     Zn1049   1.995       .  S
O1043      C1315   1.271   1_554  A
C1044      C1086   1.459       .  S
C1044      O1060   1.272       .  A
C1044      O1057   1.275       .  A
O1045      C1058   1.274       .  A
O1045     Cd1052   2.088       .  S
O1046      C1320   1.276   1_554  A
O1046     Cd1055   2.075       .  S
O1047      C1061   1.274       .  A
O1047     Cd1051   2.067       .  S
O1048      C1059   1.274       .  A
O1048     Cd1051   2.084       .  S
Zn1049     O1060   2.008       .  S
Zn1049     O1062   1.993       .  S
Zn1049     O1310   1.930   1_554  S
O1050      C1317   1.276   1_554  A
O1050     Cd1055   2.075       .  S
Cd1051     O1053   2.069       .  S
Cd1051     O1054   2.007       .  S
Cd1052     O1056   2.078       .  S
Cd1052     O1065   2.070       .  S
Cd1052     O1054   2.010       .  S
O1053      C1063   1.274       .  A
O1054     Zn1305   1.930       .  S
O1054     Cd1311   2.000       .  S
Cd1055     O1057   2.080       .  S
Cd1055     O1310   2.000   1_554  S
O1056      C1063   1.275       .  A
C1058      O1318   1.271       .  A
C1059      C1349   1.471       .  S
C1059      O1299   1.271       .  A
C1061      C1637   1.469   1_545  S
C1061      O1306   1.276       .  A
O1062      C1314   1.271   1_554  A
C1063      C1067   1.459       .  S
C1064      C1153   1.475       .  S
C1064      O1302   1.276       .  A
C1064      O1065   1.276       .  A
O1066     Zn1072   1.995       .  S
O1066      C1082   1.271       .  A
C1067      O1083   1.272       .  A
C1067      O1080   1.275       .  A
O1068      C1081   1.275       .  A
O1068     Cd1075   2.088       .  S
O1069      C1087   1.276       .  A
O1069     Cd1078   2.075       .  S
O1070      C1084   1.274       .  A
O1070     Cd1074   2.067       .  S
O1071      C1082   1.274       .  A
O1071     Cd1074   2.083       .  S
Zn1072     O1083   2.009       .  S
Zn1072     O1085   1.993       .  S
Zn1072     O1077   1.930       .  S
O1073      C1084   1.276       .  A
O1073     Cd1078   2.075       .  S
Cd1074     O1076   2.069       .  S
Cd1074     O1077   2.007       .  S
Cd1075     O1079   2.078       .  S
Cd1075     O1088   2.070       .  S
Cd1075     O1077   2.010       .  S
O1076      C1086   1.274       .  A
O1077     Cd1078   2.000       .  S
Cd1078     O1080   2.080       .  S
O1079      C1086   1.275       .  A
C1081      O1085   1.271       .  A
C1082      C1102   1.471       .  S
C1084      C1660   1.469   1_545  S
C1087      C1162   1.474       .  S
C1087      O1088   1.276       .  A
C1089      C1090   1.411       .  A
C1089      C1094   1.410       .  A
C1089      C1512   1.474       .  S
C1090      C1091   1.402       .  A
C1090      H1095   1.084       .  S
C1091      C1092   1.400       .  A
C1091      C1378   1.472       .  S
C1092      C1093   1.398       .  A
C1092      H1096   1.085       .  S
C1093      C1094   1.400       .  A
C1093      C1315   1.471       .  S
C1094      H1097   1.084       .  S
C1098      C1099   1.411       .  A
C1098      C1103   1.410       .  A
C1098      C1279   1.475       .  S
C1099      C1100   1.402       .  A
C1099      H1104   1.084       .  S
C1100      C1101   1.400       .  A
C1100      C1145   1.472       .  S
C1101      C1102   1.398       .  A
C1101      H1105   1.085       .  S
C1102      C1103   1.400       .  A
C1103      H1106   1.084       .  S
O1107     Zn1113   2.010       .  S
O1107      C1123   1.273       .  A
C1108      C1285   1.471       .  S
C1108      O1124   1.271       .  A
C1108      O1377   1.274       .  A
O1109      C1378   1.275   1_554  A
O1109     Cd1116   2.089       .  S
O1110      C1128   1.274       .  A
O1110     Cd1119   2.068       .  S
O1111      C1125   1.276       .  A
O1111     Cd1115   2.075       .  S
O1112      C1123   1.275       .  A
O1112     Cd1115   2.078       .  S
Zn1113     O1124   1.996       .  S
Zn1113     O1126   1.993       .  S
Zn1113     O1118   1.930       .  S
O1114      C1381   1.274   1_554  A
O1114     Cd1119   2.067       .  S
Cd1115     O1117   2.074       .  S
Cd1115     O1118   2.000       .  S
Cd1116     O1120   2.071       .  S
Cd1116     O1129   2.078       .  S
Cd1116     O1374   2.010   1_554  S
O1117      C1127   1.276       .  A
O1118     Cd1372   2.010       .  S
O1118     Cd1375   2.007       .  S
Cd1119     O1121   2.083       .  S
Cd1119     O1374   2.007   1_554  S
O1120      C1383   1.276   1_554  A
O1121      C1364   1.274   1_554  A
C1122      C1347   1.472       .  S
C1122      O1365   1.275       .  A
C1122      O1126   1.271       .  A
C1123      C1151   1.459       .  S
C1125      C1573   1.469       .  S
C1125      O1370   1.274       .  A
C1127      C1217   1.474       .  S
C1127      O1376   1.276       .  A
C1128      C1146   1.459       .  S
C1128      O1129   1.276       .  A
O1130     Zn1136   2.009       .  S
O1130      C1146   1.272       .  A
C1131      O1147   1.271       .  A
C1131      O1144   1.274       .  A
O1132      C1145   1.274       .  A
O1132     Cd1139   2.088       .  S
O1133      C1151   1.274       .  A
O1133     Cd1142   2.068       .  S
O1134      C1148   1.276       .  A
O1134     Cd1138   2.075       .  S
O1135      C1146   1.275       .  A
O1135     Cd1138   2.079       .  S
Zn1136     O1147   1.995       .  S
Zn1136     O1149   1.993       .  S
Zn1136     O1141   1.929       .  S
O1137      C1148   1.274       .  A
O1137     Cd1142   2.067       .  S
Cd1138     O1140   2.074       .  S
Cd1138     O1141   2.000       .  S
Cd1139     O1143   2.071       .  S
Cd1139     O1152   2.078       .  S
Cd1139     O1141   2.010       .  S
O1140      C1150   1.276       .  A
O1141     Cd1142   2.007       .  S
Cd1142     O1144   2.083       .  S
O1143      C1150   1.276       .  A
C1145      O1149   1.271       .  A
C1148      C1596   1.469       .  S
C1150      C1226   1.474       .  S
C1151      O1152   1.276       .  A
C1153      C1154   1.410       .  A
C1153      C1158   1.411       .  A
C1154      C1155   1.400       .  A
C1154      H1159   1.084       .  S
C1155      C1156   1.398       .  A
C1155      C1251   1.471       .  S
C1156      C1669   1.400   1_545  A
C1156      H1160   1.085       .  S
C1157      C1668   1.400       .  A
C1157      C1670   1.402       .  A
C1157      C1186   1.472       .  S
C1158      C1669   1.402   1_545  A
C1158      H1673   1.084   1_545  S
H1161      C1670   1.084       .  S
C1162      C1163   1.410       .  A
C1162      C1167   1.411       .  A
C1163      C1164   1.400       .  A
C1163      H1168   1.084       .  S
C1164      C1165   1.398       .  A
C1164      C1274   1.471       .  S
C1165      C1678   1.400   1_545  A
C1165      H1169   1.085       .  S
C1166      C1677   1.400       .  A
C1166      C1679   1.402       .  A
C1166      C1209   1.472       .  S
C1167      C1678   1.402   1_545  A
C1167      H1682   1.084   1_545  S
H1170      C1679   1.084       .  S
O1171     Zn1177   2.009       .  S
O1171      C1187   1.272       .  A
C1172      C1219   1.471       .  S
C1172      O1444   1.271       .  A
C1172      O1185   1.274       .  A
O1173      C1186   1.274       .  A
O1173     Cd1180   2.088       .  S
O1174      C1192   1.274       .  A
O1174     Cd1183   2.068       .  S
O1175      C1445   1.276   1_554  A
O1175     Cd1179   2.075       .  S
O1176      C1187   1.275       .  A
O1176     Cd1179   2.078       .  S
Zn1177     O1190   1.993       .  S
Zn1177     O1438   1.929   1_554  S
Cd1179     O1181   2.074       .  S
Cd1179     O1438   2.000   1_554  S
Cd1180     O1184   2.071       .  S
Cd1180     O1193   2.078       .  S
Cd1180     O1182   2.010       .  S
O1181      C1447   1.276   1_554  A
O1182     Zn1433   1.929       .  S
O1182     Cd1435   2.000       .  S
O1182     Cd1183   2.007       .  S
O1184      C1191   1.276       .  A
C1186      O1446   1.271       .  A
C1187      C1215   1.459       .  S
O1188      C1428   1.271   1_554  A
C1189      O1431   1.276       .  A
O1190      C1442   1.271   1_554  A
C1191      C1281   1.474       .  S
C1191      O1437   1.276       .  A
C1192      C1210   1.459       .  S
C1192      O1193   1.276       .  A
O1194     Zn1200   2.010       .  S
O1194      C1210   1.273       .  A
C1195      C1230   1.471       .  S
C1195      O1211   1.271       .  A
C1195      O1208   1.274       .  A
O1196      C1209   1.275       .  A
O1196     Cd1203   2.089       .  S
O1197      C1215   1.274       .  A
O1197     Cd1206   2.068       .  S
O1198      C1212   1.276       .  A
O1198     Cd1202   2.075       .  S
O1199      C1210   1.275       .  A
O1199     Cd1202   2.079       .  S
Zn1200     O1213   1.993       .  S
Zn1200     O1205   1.930       .  S
Cd1202     O1204   2.074       .  S
Cd1202     O1205   2.000       .  S
Cd1203     O1207   2.071       .  S
Cd1203     O1216   2.079       .  S
Cd1203     O1205   2.010       .  S
O1204      C1214   1.276       .  A
O1205     Cd1206   2.007       .  S
O1207      C1214   1.276       .  A
C1209      O1213   1.271       .  A
C1215      O1216   1.276       .  A
C1217      C1218   1.410       .  A
C1217      C1222   1.410       .  A
C1218      C1219   1.400       .  A
C1218      H1223   1.084       .  S
C1219      C1220   1.398       .  A
C1220      C1221   1.400       .  A
C1220      H1224   1.085       .  S
C1221      C1222   1.401       .  A
C1221      C1762   1.472       .  S
C1222      H1225   1.084       .  S
C1226      C1227   1.410       .  A
C1226      C1231   1.410       .  A
C1227      C1228   1.402       .  A
C1227      H1232   1.084       .  S
C1228      C1229   1.399       .  A
C1228      C1785   1.472       .  S
C1229      C1230   1.398       .  A
C1229      H1233   1.085       .  S
C1230      C1231   1.400       .  A
C1231      H1234   1.084       .  S
O1235      C1251   1.271       .  A
C1236      C1278   1.459       .  S
C1236      O1252   1.272       .  A
C1236      O1249   1.275       .  A
O1237      C1506   1.275   1_554  A
O1237     Cd1244   2.088       .  S
O1238      C1256   1.276       .  A
O1238     Cd1247   2.075       .  S
O1240      C1507   1.274   1_554  A
Zn1241     O1252   2.009       .  S
Zn1241     O1254   1.993       .  S
Zn1241     O1246   1.930       .  S
O1242      C1253   1.276       .  A
O1242     Cd1247   2.075       .  S
Cd1243     O1245   2.069       .  S
Cd1243     O1502   2.007   1_554  S
Cd1244     O1248   2.078       .  S
Cd1244     O1257   2.070       .  S
Cd1244     O1502   2.010   1_554  S
O1245      C1255   1.274       .  A
O1246     Cd1499   2.007       .  S
O1246     Cd1500   2.010       .  S
O1246     Cd1247   2.000       .  S
Cd1247     O1249   2.080       .  S
O1248      C1255   1.275       .  A
C1250      C1733   1.472   1_545  S
C1250      O1493   1.275       .  A
C1250      O1254   1.271       .  A
C1251      O1496   1.274       .  A
C1255      C1259   1.459       .  S
C1256      C1345   1.474       .  S
C1256      O1513   1.276       .  A
O1257      C1512   1.276   1_554  A
O1258      C1274   1.271       .  A
C1259      O1275   1.272       .  A
C1259      O1272   1.275       .  A
O1260      C1273   1.274       .  A
O1260     Cd1267   2.088       .  S
O1261      C1279   1.276       .  A
O1261     Cd1270   2.075       .  S
O1263      C1274   1.274       .  A
Zn1264     O1275   2.008       .  S
Zn1264     O1277   1.993       .  S
Zn1264     O1269   1.930       .  S
O1265      C1276   1.276       .  A
O1265     Cd1270   2.075       .  S
Cd1266     O1268   2.069       .  S
Cd1266     O1269   2.007       .  S
Cd1267     O1271   2.078       .  S
Cd1267     O1280   2.070       .  S
Cd1267     O1269   2.010       .  S
O1268      C1278   1.274       .  A
O1269     Cd1270   2.000       .  S
Cd1270     O1272   2.080       .  S
O1271      C1278   1.275       .  A
C1273      C1740   1.472   1_545  S
C1273      O1277   1.271       .  A
C1279      O1280   1.276       .  A
C1281      C1286   1.410       .  A
C1282      C1283   1.402       .  A
C1282      H1287   1.084       .  S
C1283      C1284   1.399       .  A
C1283      C1314   1.472       .  S
C1284      H1288   1.085       .  S
C1285      C1286   1.400       .  A
C1286      H1289   1.084       .  S
C1290      C1291   1.410       .  A
C1290      C1295   1.410       .  A
C1290      C1470   1.474       .  S
C1291      C1292   1.400       .  A
C1291      H1296   1.084       .  S
C1292      C1293   1.398       .  A
C1292      C1387   1.471       .  S
C1293      C1294   1.399       .  A
C1293      H1297   1.085       .  S
C1294      C1295   1.401       .  A
C1294      C1337   1.472       .  S
C1295      H1298   1.084       .  S
O1299     Zn1305   1.995       .  S
C1300      C1342   1.459       .  S
C1300      O1316   1.272       .  A
C1300      O1313   1.275       .  A
O1301      C1314   1.274       .  A
O1301     Cd1308   2.088       .  S
O1302     Cd1311   2.075       .  S
O1303      C1317   1.274       .  A
O1303     Cd1307   2.067       .  S
O1304      C1315   1.274       .  A
O1304     Cd1307   2.084       .  S
Zn1305     O1316   2.008       .  S
Zn1305     O1318   1.993       .  S
O1306     Cd1311   2.075       .  S
Cd1307     O1309   2.069       .  S
Cd1307     O1310   2.007       .  S
Cd1308     O1312   2.078       .  S
Cd1308     O1321   2.070       .  S
Cd1308     O1310   2.010       .  S
O1309      C1319   1.274       .  A
Cd1311     O1313   2.080       .  S
O1312      C1319   1.275       .  A
C1317      C1893   1.469   1_545  S
C1319      C1323   1.459       .  S
C1320      C1409   1.475       .  S
C1320      O1321   1.276       .  A
O1322     Zn1328   1.995       .  S
O1322      C1338   1.271       .  A
C1323      O1339   1.272       .  A
C1323      O1336   1.275       .  A
O1324      C1337   1.275       .  A
O1324     Cd1331   2.088       .  S
O1325      C1343   1.276       .  A
O1325     Cd1334   2.075       .  S
O1326      C1340   1.274       .  A
O1326     Cd1330   2.067       .  S
O1327      C1338   1.274       .  A
O1327     Cd1330   2.083       .  S
Zn1328     O1339   2.009       .  S
Zn1328     O1341   1.993       .  S
Zn1328     O1333   1.930       .  S
O1329      C1340   1.276       .  A
O1329     Cd1334   2.075       .  S
Cd1330     O1332   2.069       .  S
Cd1330     O1333   2.007       .  S
Cd1331     O1335   2.078       .  S
Cd1331     O1344   2.070       .  S
Cd1331     O1333   2.010       .  S
O1332      C1342   1.274       .  A
O1333     Cd1334   2.000       .  S
Cd1334     O1336   2.080       .  S
O1335      C1342   1.275       .  A
C1337      O1341   1.271       .  A
C1338      C1358   1.471       .  S
C1340      C1916   1.469   1_545  S
C1343      C1418   1.474       .  S
C1343      O1344   1.276       .  A
C1345      C1346   1.411       .  A
C1345      C1350   1.410       .  A
C1346      C1347   1.402       .  A
C1346      H1351   1.084       .  S
C1347      C1348   1.400       .  A
C1348      C1349   1.398       .  A
C1348      H1352   1.085       .  S
C1349      C1350   1.400       .  A
C1350      H1353   1.084       .  S
C1354      C1355   1.411       .  A
C1354      C1359   1.410       .  A
C1354      C1535   1.475       .  S
C1355      C1356   1.402       .  A
C1355      H1360   1.084       .  S
C1356      C1357   1.400       .  A
C1356      C1401   1.472       .  S
C1357      C1358   1.398       .  A
C1357      H1361   1.085       .  S
C1358      C1359   1.400       .  A
C1359      H1362   1.084       .  S
O1363     Zn1369   2.010       .  S
O1363      C1379   1.273       .  A
C1364      O1380   1.271       .  A
O1365     Cd1372   2.089       .  S
O1366      C1384   1.274       .  A
O1366     Cd1375   2.068       .  S
O1367      C1381   1.276       .  A
O1367     Cd1371   2.075       .  S
O1368      C1379   1.275       .  A
O1368     Cd1371   2.078       .  S
Zn1369     O1380   1.996       .  S
Zn1369     O1382   1.993       .  S
Zn1369     O1374   1.930       .  S
O1370     Cd1375   2.067       .  S
Cd1371     O1373   2.074       .  S
Cd1371     O1374   2.000       .  S
Cd1372     O1376   2.071       .  S
Cd1372     O1385   2.078       .  S
O1373      C1383   1.276       .  A
Cd1375     O1377   2.083       .  S
C1378      O1382   1.271       .  A
C1379      C1407   1.459       .  S
C1381      C1829   1.469       .  S
C1383      C1473   1.474       .  S
C1384      C1402   1.459       .  S
C1384      O1385   1.276       .  A
O1386     Zn1392   2.009       .  S
O1386      C1402   1.272       .  A
C1387      O1403   1.271       .  A
C1387      O1400   1.274       .  A
O1388      C1401   1.274       .  A
O1388     Cd1395   2.088       .  S
O1389      C1407   1.274       .  A
O1389     Cd1398   2.068       .  S
O1390      C1404   1.276       .  A
O1390     Cd1394   2.075       .  S
O1391      C1402   1.275       .  A
O1391     Cd1394   2.079       .  S
Zn1392     O1403   1.995       .  S
Zn1392     O1405   1.993       .  S
Zn1392     O1397   1.929       .  S
O1393      C1404   1.274       .  A
O1393     Cd1398   2.067       .  S
Cd1394     O1396   2.074       .  S
Cd1394     O1397   2.000       .  S
Cd1395     O1399   2.071       .  S
Cd1395     O1408   2.078       .  S
Cd1395     O1397   2.010       .  S
O1396      C1406   1.276       .  A
O1397     Cd1398   2.007       .  S
Cd1398     O1400   2.083       .  S
O1399      C1406   1.276       .  A
C1401      O1405   1.271       .  A
C1404      C1852   1.469       .  S
C1406      C1482   1.474       .  S
C1407      O1408   1.276       .  A
C1409      C1410   1.410       .  A
C1409      C1414   1.411       .  A
C1410      C1411   1.400       .  A
C1410      H1415   1.084       .  S
C1411      C1412   1.398       .  A
C1411      C1507   1.471       .  S
C1412      C1925   1.400   1_545  A
C1412      H1416   1.085       .  S
C1413      C1924   1.400       .  A
C1413      C1926   1.402       .  A
C1413      C1442   1.472       .  S
C1414      C1925   1.402   1_545  A
C1414      H1929   1.084   1_545  S
H1417      C1926   1.084       .  S
C1418      C1419   1.410       .  A
C1418      C1423   1.411       .  A
C1419      C1420   1.400       .  A
C1419      H1424   1.084       .  S
C1420      C1421   1.398       .  A
C1420      C1530   1.471       .  S
C1421      C1934   1.400   1_545  A
C1421      H1425   1.085       .  S
C1422      C1933   1.400       .  A
C1422      C1935   1.402       .  A
C1422      C1465   1.472       .  S
C1423      C1934   1.402   1_545  A
C1423      H1938   1.084   1_545  S
H1426      C1935   1.084       .  S
O1427     Zn1433   2.009       .  S
O1427      C1443   1.272       .  A
C1428      C1475   1.471       .  S
C1428      O1441   1.274       .  A
O1429      C1442   1.274       .  A
O1429     Cd1436   2.088       .  S
O1430      C1448   1.274       .  A
O1430     Cd1439   2.068       .  S
O1431     Cd1435   2.075       .  S
O1432      C1443   1.275       .  A
O1432     Cd1435   2.079       .  S
Zn1433     O1446   1.993       .  S
Cd1435     O1437   2.074       .  S
Cd1436     O1440   2.071       .  S
Cd1436     O1449   2.078       .  S
Cd1436     O1438   2.010       .  S
O1438     Cd1439   2.007       .  S
O1440      C1447   1.276       .  A
C1443      C1471   1.459       .  S
C1448      C1466   1.459       .  S
C1448      O1449   1.276       .  A
O1450     Zn1456   2.010       .  S
O1450      C1466   1.273       .  A
C1451      C1486   1.471       .  S
C1451      O1467   1.271       .  A
C1451      O1464   1.274       .  A
O1452      C1465   1.275       .  A
O1452     Cd1459   2.089       .  S
O1453      C1471   1.274       .  A
O1453     Cd1462   2.068       .  S
O1454      C1468   1.276       .  A
O1454     Cd1458   2.075       .  S
O1455      C1466   1.275       .  A
O1455     Cd1458   2.079       .  S
Zn1456     O1469   1.993       .  S
Zn1456     O1461   1.930       .  S
Cd1458     O1460   2.074       .  S
Cd1458     O1461   2.000       .  S
Cd1459     O1463   2.071       .  S
Cd1459     O1472   2.079       .  S
Cd1459     O1461   2.010       .  S
O1460      C1470   1.276       .  A
O1461     Cd1462   2.007       .  S
O1463      C1470   1.276       .  A
C1465      O1469   1.271       .  A
C1471      O1472   1.276       .  A
C1473      C1474   1.410       .  A
C1473      C1478   1.410       .  A
C1474      C1475   1.400       .  A
C1474      H1479   1.084       .  S
C1475      C1476   1.398       .  A
C1476      C1477   1.399       .  A
C1476      H1480   1.085       .  S
C1477      C1478   1.401       .  A
C1477      C2018   1.472       .  S
C1478      H1481   1.084       .  S
C1482      C1483   1.410       .  A
C1482      C1487   1.410       .  A
C1483      C1484   1.402       .  A
C1483      H1488   1.084       .  S
C1484      C1485   1.399       .  A
C1484      C2041   1.472       .  S
C1485      C1486   1.398       .  A
C1485      H1489   1.085       .  S
C1486      C1487   1.400       .  A
C1487      H1490   1.084       .  S
O1491      C1507   1.271       .  A
C1492      C1534   1.459       .  S
C1492      O1508   1.272       .  A
C1492      O1505   1.275       .  A
O1493     Cd1500   2.088       .  S
O1494      C1512   1.276       .  A
O1494     Cd1503   2.075       .  S
Zn1497     O1508   2.009       .  S
Zn1497     O1510   1.993       .  S
Zn1497     O1502   1.930       .  S
O1498      C1509   1.276       .  A
O1498     Cd1503   2.075       .  S
Cd1499     O1501   2.069       .  S
Cd1500     O1504   2.078       .  S
Cd1500     O1513   2.070       .  S
O1501      C1511   1.274       .  A
O1502     Cd1503   2.000       .  S
Cd1503     O1505   2.080       .  S
O1504      C1511   1.275       .  A
C1506      C1989   1.472   1_545  S
C1506      O1510   1.271       .  A
C1511      C1515   1.459       .  S
O1514      C1530   1.271       .  A
C1515      O1531   1.272       .  A
C1515      O1528   1.275       .  A
O1516      C1529   1.274       .  A
O1516     Cd1523   2.088       .  S
O1517      C1535   1.276       .  A
O1517     Cd1526   2.075       .  S
O1519      C1530   1.274       .  A
Zn1520     O1531   2.008       .  S
Zn1520     O1533   1.993       .  S
Zn1520     O1525   1.930       .  S
O1521      C1532   1.276       .  A
O1521     Cd1526   2.075       .  S
Cd1522     O1524   2.069       .  S
Cd1522     O1525   2.007       .  S
Cd1523     O1527   2.078       .  S
Cd1523     O1536   2.070       .  S
Cd1523     O1525   2.010       .  S
O1524      C1534   1.274       .  A
O1525     Cd1526   2.000       .  S
Cd1526     O1528   2.080       .  S
O1527      C1534   1.275       .  A
C1529      C1996   1.472   1_545  S
C1529      O1533   1.271       .  A
C1535      O1536   1.276       .  A
C1537      C1794   1.410       .  A
C1537      C1542   1.410       .  A
C1537      C1959   1.474       .  S
C1538      C1793   1.410       .  A
C1538      C1539   1.402       .  A
C1538      H1543   1.084       .  S
C1539      C1540   1.399       .  A
C1539      C1570   1.472       .  S
C1540      C1797   1.398       .  A
C1540      H1544   1.085       .  S
C1541      C1796   1.398       .  A
C1541      C1542   1.400       .  A
C1541      C1876   1.471       .  S
C1542      H1545   1.084       .  S
C1546      C1547   1.410       .  A
C1546      C1551   1.410       .  A
C1546      C1726   1.474       .  S
C1547      C1548   1.400       .  A
C1547      H1552   1.084       .  S
C1548      C1549   1.398       .  A
C1548      C1643   1.471       .  S
C1549      C1550   1.399       .  A
C1549      H1553   1.085       .  S
C1550      C1551   1.401       .  A
C1550      C1593   1.472       .  S
C1551      H1554   1.084       .  S
O1555     Zn1561   1.995       .  S
O1555      C1827   1.271   1_554  A
C1556      C1598   1.459       .  S
C1556      O1572   1.272       .  A
C1556      O1569   1.275       .  A
O1557      C1570   1.274       .  A
O1557     Cd1564   2.088       .  S
O1558      C1832   1.276   1_554  A
O1558     Cd1567   2.075       .  S
O1559      C1573   1.274       .  A
O1559     Cd1563   2.067       .  S
O1560      C1571   1.274       .  A
O1560     Cd1563   2.084       .  S
Zn1561     O1572   2.008       .  S
Zn1561     O1574   1.993       .  S
Zn1561     O1822   1.930   1_554  S
O1562      C1829   1.276   1_554  A
O1562     Cd1567   2.075       .  S
Cd1563     O1565   2.069       .  S
Cd1563     O1566   2.007       .  S
Cd1564     O1568   2.078       .  S
Cd1564     O1577   2.070       .  S
Cd1564     O1566   2.010       .  S
O1565      C1575   1.274       .  A
O1566     Zn1817   1.930       .  S
O1566     Cd1823   2.000       .  S
Cd1567     O1569   2.080       .  S
Cd1567     O1822   2.000   1_554  S
O1568      C1575   1.275       .  A
C1570      O1830   1.271       .  A
C1571      C1861   1.471       .  S
C1571      O1811   1.271       .  A
C1573      O1818   1.276       .  A
O1574      C1826   1.271   1_554  A
C1575      C1579   1.459       .  S
C1576      C1665   1.475       .  S
C1576      O1814   1.276       .  A
C1576      O1577   1.276       .  A
O1578     Zn1584   1.995       .  S
O1578      C1594   1.271       .  A
C1579      O1595   1.272       .  A
C1579      O1592   1.275       .  A
O1580      C1593   1.275       .  A
O1580     Cd1587   2.088       .  S
O1581      C1599   1.276       .  A
O1581     Cd1590   2.075       .  S
O1582      C1596   1.274       .  A
O1582     Cd1586   2.067       .  S
O1583      C1594   1.274       .  A
O1583     Cd1586   2.083       .  S
Zn1584     O1595   2.009       .  S
Zn1584     O1597   1.993       .  S
Zn1584     O1589   1.930       .  S
O1585      C1596   1.276       .  A
O1585     Cd1590   2.075       .  S
Cd1586     O1588   2.069       .  S
Cd1586     O1589   2.007       .  S
Cd1587     O1591   2.078       .  S
Cd1587     O1600   2.070       .  S
Cd1587     O1589   2.010       .  S
O1588      C1598   1.274       .  A
O1589     Cd1590   2.000       .  S
Cd1590     O1592   2.080       .  S
O1591      C1598   1.275       .  A
C1593      O1597   1.271       .  A
C1594      C1614   1.471       .  S
C1599      C1674   1.474       .  S
C1599      O1600   1.276       .  A
C1601      C1602   1.411       .  A
C1601      C1606   1.410       .  A
C1601      C2024   1.474       .  S
C1602      C1603   1.402       .  A
C1602      H1607   1.084       .  S
C1603      C1604   1.400       .  A
C1603      C1890   1.472       .  S
C1604      C1605   1.398       .  A
C1604      H1608   1.085       .  S
C1605      C1606   1.400       .  A
C1605      C1827   1.471       .  S
C1606      H1609   1.084       .  S
C1610      C1611   1.411       .  A
C1610      C1615   1.410       .  A
C1610      C1791   1.475       .  S
C1611      C1612   1.402       .  A
C1611      H1616   1.084       .  S
C1612      C1613   1.400       .  A
C1612      C1657   1.472       .  S
C1613      C1614   1.398       .  A
C1613      H1617   1.085       .  S
C1614      C1615   1.400       .  A
C1615      H1618   1.084       .  S
O1619     Zn1625   2.010       .  S
O1619      C1635   1.273       .  A
C1620      C1797   1.471       .  S
C1620      O1636   1.271       .  A
C1620      O1889   1.274       .  A
O1621      C1890   1.275   1_554  A
O1621     Cd1628   2.089       .  S
O1622      C1640   1.274       .  A
O1622     Cd1631   2.068       .  S
O1623      C1637   1.276       .  A
O1623     Cd1627   2.075       .  S
O1624      C1635   1.275       .  A
O1624     Cd1627   2.078       .  S
Zn1625     O1636   1.996       .  S
Zn1625     O1638   1.993       .  S
Zn1625     O1630   1.930       .  S
O1626      C1893   1.274   1_554  A
O1626     Cd1631   2.067       .  S
Cd1627     O1629   2.074       .  S
Cd1627     O1630   2.000       .  S
Cd1628     O1632   2.071       .  S
Cd1628     O1641   2.078       .  S
Cd1628     O1886   2.010   1_554  S
O1629      C1639   1.276       .  A
O1630     Cd1884   2.010       .  S
O1630     Cd1887   2.007       .  S
Cd1631     O1633   2.083       .  S
Cd1631     O1886   2.007   1_554  S
O1632      C1895   1.276   1_554  A
O1633      C1876   1.274   1_554  A
C1634      C1859   1.472       .  S
C1634      O1877   1.275       .  A
C1634      O1638   1.271       .  A
C1635      C1663   1.459       .  S
C1637      O1882   1.274       .  A
C1639      C1729   1.474       .  S
C1639      O1888   1.276       .  A
C1640      C1658   1.459       .  S
C1640      O1641   1.276       .  A
O1642     Zn1648   2.009       .  S
O1642      C1658   1.272       .  A
C1643      O1659   1.271       .  A
C1643      O1656   1.274       .  A
O1644      C1657   1.274       .  A
O1644     Cd1651   2.088       .  S
O1645      C1663   1.274       .  A
O1645     Cd1654   2.068       .  S
O1646      C1660   1.276       .  A
O1646     Cd1650   2.075       .  S
O1647      C1658   1.275       .  A
O1647     Cd1650   2.079       .  S
Zn1648     O1659   1.995       .  S
Zn1648     O1661   1.993       .  S
Zn1648     O1653   1.929       .  S
O1649      C1660   1.274       .  A
O1649     Cd1654   2.067       .  S
Cd1650     O1652   2.074       .  S
Cd1650     O1653   2.000       .  S
Cd1651     O1655   2.071       .  S
Cd1651     O1664   2.078       .  S
Cd1651     O1653   2.010       .  S
O1652      C1662   1.276       .  A
O1653     Cd1654   2.007       .  S
Cd1654     O1656   2.083       .  S
O1655      C1662   1.276       .  A
C1657      O1661   1.271       .  A
C1662      C1738   1.474       .  S
C1663      O1664   1.276       .  A
C1665      C1666   1.410       .  A
C1665      C1670   1.411       .  A
C1666      C1667   1.400       .  A
C1666      H1671   1.084       .  S
C1667      C1668   1.398       .  A
C1667      C1763   1.471       .  S
C1668      H1672   1.085       .  S
C1669      C1698   1.472       .  S
C1674      C1675   1.410       .  A
C1674      C1679   1.411       .  A
C1675      C1676   1.400       .  A
C1675      H1680   1.084       .  S
C1676      C1677   1.398       .  A
C1676      C1786   1.471       .  S
C1677      H1681   1.085       .  S
C1678      C1721   1.472       .  S
O1683     Zn1689   2.009       .  S
O1683      C1699   1.272       .  A
C1684      C1731   1.471       .  S
C1684      O1956   1.271       .  A
C1684      O1697   1.274       .  A
O1685      C1698   1.274       .  A
O1685     Cd1692   2.088       .  S
O1686      C1704   1.274       .  A
O1686     Cd1695   2.068       .  S
O1687      C1957   1.276   1_554  A
O1687     Cd1691   2.075       .  S
O1688      C1699   1.275       .  A
O1688     Cd1691   2.078       .  S
Zn1689     O1702   1.993       .  S
Zn1689     O1950   1.929   1_554  S
Cd1691     O1693   2.074       .  S
Cd1691     O1950   2.000   1_554  S
Cd1692     O1696   2.071       .  S
Cd1692     O1705   2.078       .  S
Cd1692     O1694   2.010       .  S
O1693      C1959   1.276   1_554  A
O1694     Zn1945   1.929       .  S
O1694     Cd1947   2.000       .  S
O1694     Cd1695   2.007       .  S
O1696      C1703   1.276       .  A
C1698      O1958   1.271       .  A
C1699      C1727   1.459       .  S
O1700      C1940   1.271   1_554  A
C1701      O1943   1.276       .  A
O1702      C1954   1.271   1_554  A
C1703      C1793   1.474       .  S
C1703      O1949   1.276       .  A
C1704      C1722   1.459       .  S
C1704      O1705   1.276       .  A
O1706     Zn1712   2.010       .  S
O1706      C1722   1.273       .  A
C1707      C1742   1.471       .  S
C1707      O1723   1.271       .  A
C1707      O1720   1.274       .  A
O1708      C1721   1.275       .  A
O1708     Cd1715   2.089       .  S
O1709      C1727   1.274       .  A
O1709     Cd1718   2.068       .  S
O1710      C1724   1.276       .  A
O1710     Cd1714   2.075       .  S
O1711      C1722   1.275       .  A
O1711     Cd1714   2.079       .  S
Zn1712     O1725   1.993       .  S
Zn1712     O1717   1.930       .  S
Cd1714     O1716   2.074       .  S
Cd1714     O1717   2.000       .  S
Cd1715     O1719   2.071       .  S
Cd1715     O1728   2.079       .  S
Cd1715     O1717   2.010       .  S
O1716      C1726   1.276       .  A
O1717     Cd1718   2.007       .  S
O1719      C1726   1.276       .  A
C1721      O1725   1.271       .  A
C1727      O1728   1.276       .  A
C1729      C1730   1.410       .  A
C1729      C1734   1.410       .  A
C1730      C1731   1.400       .  A
C1730      H1735   1.084       .  S
C1731      C1732   1.398       .  A
C1732      C1733   1.399       .  A
C1732      H1736   1.085       .  S
C1733      C1734   1.401       .  A
C1734      H1737   1.084       .  S
C1738      C1739   1.410       .  A
C1738      C1743   1.410       .  A
C1739      C1740   1.402       .  A
C1739      H1744   1.084       .  S
C1740      C1741   1.399       .  A
C1741      C1742   1.398       .  A
C1741      H1745   1.085       .  S
C1742      C1743   1.400       .  A
C1743      H1746   1.084       .  S
O1747      C1763   1.271       .  A
C1748      C1790   1.459       .  S
C1748      O1764   1.272       .  A
C1748      O1761   1.275       .  A
O1749      C2018   1.275   1_554  A
O1749     Cd1756   2.088       .  S
O1750      C1768   1.276       .  A
O1750     Cd1759   2.075       .  S
O1752      C2019   1.274   1_554  A
Zn1753     O1764   2.009       .  S
Zn1753     O1766   1.993       .  S
Zn1753     O1758   1.930       .  S
O1754      C1765   1.276       .  A
O1754     Cd1759   2.075       .  S
Cd1755     O1757   2.069       .  S
Cd1755     O2014   2.007   1_554  S
Cd1756     O1760   2.078       .  S
Cd1756     O1769   2.070       .  S
Cd1756     O2014   2.010   1_554  S
O1757      C1767   1.274       .  A
O1758     Cd2011   2.007       .  S
O1758     Cd2012   2.010       .  S
O1758     Cd1759   2.000       .  S
Cd1759     O1761   2.080       .  S
O1760      C1767   1.275       .  A
C1762      O2005   1.275       .  A
C1762      O1766   1.271       .  A
C1763      O2008   1.274       .  A
C1767      C1771   1.459       .  S
C1768      C1857   1.474       .  S
C1768      O2025   1.276       .  A
O1769      C2024   1.276   1_554  A
O1770      C1786   1.271       .  A
C1771      O1787   1.272       .  A
C1771      O1784   1.275       .  A
O1772      C1785   1.274       .  A
O1772     Cd1779   2.088       .  S
O1773      C1791   1.276       .  A
O1773     Cd1782   2.075       .  S
O1775      C1786   1.274       .  A
Zn1776     O1787   2.008       .  S
Zn1776     O1789   1.993       .  S
Zn1776     O1781   1.930       .  S
O1777      C1788   1.276       .  A
O1777     Cd1782   2.075       .  S
Cd1778     O1780   2.069       .  S
Cd1778     O1781   2.007       .  S
Cd1779     O1783   2.078       .  S
Cd1779     O1792   2.070       .  S
Cd1779     O1781   2.010       .  S
O1780      C1790   1.274       .  A
O1781     Cd1782   2.000       .  S
Cd1782     O1784   2.080       .  S
O1783      C1790   1.275       .  A
C1785      O1789   1.271       .  A
C1791      O1792   1.276       .  A
C1793      C1798   1.410       .  A
C1794      C1795   1.402       .  A
C1794      H1799   1.084       .  S
C1795      C1796   1.399       .  A
C1795      C1826   1.472       .  S
C1796      H1800   1.085       .  S
C1797      C1798   1.400       .  A
C1798      H1801   1.084       .  S
C1802      C1803   1.410       .  A
C1802      C1807   1.410       .  A
C1802      C1982   1.474       .  S
C1803      C1804   1.400       .  A
C1803      H1808   1.084       .  S
C1804      C1805   1.398       .  A
C1804      C1899   1.471       .  S
C1805      C1806   1.399       .  A
C1805      H1809   1.085       .  S
C1806      C1807   1.401       .  A
C1806      C1849   1.472       .  S
C1807      H1810   1.084       .  S
O1811     Zn1817   1.995       .  S
C1812      C1854   1.459       .  S
C1812      O1828   1.272       .  A
C1812      O1825   1.275       .  A
O1813      C1826   1.274       .  A
O1813     Cd1820   2.088       .  S
O1814     Cd1823   2.075       .  S
O1815      C1829   1.274       .  A
O1815     Cd1819   2.067       .  S
O1816      C1827   1.274       .  A
O1816     Cd1819   2.084       .  S
Zn1817     O1828   2.008       .  S
Zn1817     O1830   1.993       .  S
O1818     Cd1823   2.075       .  S
Cd1819     O1821   2.069       .  S
Cd1819     O1822   2.007       .  S
Cd1820     O1824   2.078       .  S
Cd1820     O1833   2.070       .  S
Cd1820     O1822   2.010       .  S
O1821      C1831   1.274       .  A
Cd1823     O1825   2.080       .  S
O1824      C1831   1.275       .  A
C1831      C1835   1.459       .  S
C1832      C1921   1.475       .  S
C1832      O1833   1.276       .  A
O1834     Zn1840   1.995       .  S
O1834      C1850   1.271       .  A
C1835      O1851   1.272       .  A
C1835      O1848   1.275       .  A
O1836      C1849   1.275       .  A
O1836     Cd1843   2.088       .  S
O1837      C1855   1.276       .  A
O1837     Cd1846   2.075       .  S
O1838      C1852   1.274       .  A
O1838     Cd1842   2.067       .  S
O1839      C1850   1.274       .  A
O1839     Cd1842   2.083       .  S
Zn1840     O1851   2.009       .  S
Zn1840     O1853   1.993       .  S
Zn1840     O1845   1.930       .  S
O1841      C1852   1.276       .  A
O1841     Cd1846   2.075       .  S
Cd1842     O1844   2.069       .  S
Cd1842     O1845   2.007       .  S
Cd1843     O1847   2.078       .  S
Cd1843     O1856   2.070       .  S
Cd1843     O1845   2.010       .  S
O1844      C1854   1.274       .  A
O1845     Cd1846   2.000       .  S
Cd1846     O1848   2.080       .  S
O1847      C1854   1.275       .  A
C1849      O1853   1.271       .  A
C1850      C1870   1.471       .  S
C1855      C1930   1.474       .  S
C1855      O1856   1.276       .  A
C1857      C1858   1.411       .  A
C1857      C1862   1.410       .  A
C1858      C1859   1.402       .  A
C1858      H1863   1.084       .  S
C1859      C1860   1.400       .  A
C1860      C1861   1.398       .  A
C1860      H1864   1.085       .  S
C1861      C1862   1.400       .  A
C1862      H1865   1.084       .  S
C1866      C1867   1.411       .  A
C1866      C1871   1.410       .  A
C1866      C2047   1.475       .  S
C1867      C1868   1.402       .  A
C1867      H1872   1.084       .  S
C1868      C1869   1.400       .  A
C1868      C1913   1.472       .  S
C1869      C1870   1.398       .  A
C1869      H1873   1.085       .  S
C1870      C1871   1.400       .  A
C1871      H1874   1.084       .  S
O1875     Zn1881   2.010       .  S
O1875      C1891   1.273       .  A
C1876      O1892   1.271       .  A
O1877     Cd1884   2.089       .  S
O1878      C1896   1.274       .  A
O1878     Cd1887   2.068       .  S
O1879      C1893   1.276       .  A
O1879     Cd1883   2.075       .  S
O1880      C1891   1.275       .  A
O1880     Cd1883   2.078       .  S
Zn1881     O1892   1.996       .  S
Zn1881     O1894   1.993       .  S
Zn1881     O1886   1.930       .  S
O1882     Cd1887   2.067       .  S
Cd1883     O1885   2.074       .  S
Cd1883     O1886   2.000       .  S
Cd1884     O1888   2.071       .  S
Cd1884     O1897   2.078       .  S
O1885      C1895   1.276       .  A
Cd1887     O1889   2.083       .  S
C1890      O1894   1.271       .  A
C1891      C1919   1.459       .  S
C1895      C1985   1.474       .  S
C1896      C1914   1.459       .  S
C1896      O1897   1.276       .  A
O1898     Zn1904   2.009       .  S
O1898      C1914   1.272       .  A
C1899      O1915   1.271       .  A
C1899      O1912   1.274       .  A
O1900      C1913   1.274       .  A
O1900     Cd1907   2.088       .  S
O1901      C1919   1.274       .  A
O1901     Cd1910   2.068       .  S
O1902      C1916   1.276       .  A
O1902     Cd1906   2.075       .  S
O1903      C1914   1.275       .  A
O1903     Cd1906   2.079       .  S
Zn1904     O1915   1.995       .  S
Zn1904     O1917   1.993       .  S
Zn1904     O1909   1.929       .  S
O1905      C1916   1.274       .  A
O1905     Cd1910   2.067       .  S
Cd1906     O1908   2.074       .  S
Cd1906     O1909   2.000       .  S
Cd1907     O1911   2.071       .  S
Cd1907     O1920   2.078       .  S
Cd1907     O1909   2.010       .  S
O1908      C1918   1.276       .  A
O1909     Cd1910   2.007       .  S
Cd1910     O1912   2.083       .  S
O1911      C1918   1.276       .  A
C1913      O1917   1.271       .  A
C1918      C1994   1.474       .  S
C1919      O1920   1.276       .  A
C1921      C1922   1.410       .  A
C1921      C1926   1.411       .  A
C1922      C1923   1.400       .  A
C1922      H1927   1.084       .  S
C1923      C1924   1.398       .  A
C1923      C2019   1.471       .  S
C1924      H1928   1.085       .  S
C1925      C1954   1.472       .  S
C1930      C1931   1.410       .  A
C1930      C1935   1.411       .  A
C1931      C1932   1.400       .  A
C1931      H1936   1.084       .  S
C1932      C1933   1.398       .  A
C1932      C2042   1.471       .  S
C1933      H1937   1.085       .  S
C1934      C1977   1.472       .  S
O1939     Zn1945   2.009       .  S
O1939      C1955   1.272       .  A
C1940      C1987   1.471       .  S
C1940      O1953   1.274       .  A
O1941      C1954   1.274       .  A
O1941     Cd1948   2.088       .  S
O1942      C1960   1.274       .  A
O1942     Cd1951   2.068       .  S
O1943     Cd1947   2.075       .  S
O1944      C1955   1.275       .  A
O1944     Cd1947   2.079       .  S
Zn1945     O1958   1.993       .  S
Cd1947     O1949   2.074       .  S
Cd1948     O1952   2.071       .  S
Cd1948     O1961   2.078       .  S
Cd1948     O1950   2.010       .  S
O1950     Cd1951   2.007       .  S
O1952      C1959   1.276       .  A
C1955      C1983   1.459       .  S
C1960      C1978   1.459       .  S
C1960      O1961   1.276       .  A
O1962     Zn1968   2.010       .  S
O1962      C1978   1.273       .  A
C1963      C1998   1.471       .  S
C1963      O1979   1.271       .  A
C1963      O1976   1.274       .  A
O1964      C1977   1.275       .  A
O1964     Cd1971   2.089       .  S
O1965      C1983   1.274       .  A
O1965     Cd1974   2.068       .  S
O1966      C1980   1.276       .  A
O1966     Cd1970   2.075       .  S
O1967      C1978   1.275       .  A
O1967     Cd1970   2.079       .  S
Zn1968     O1981   1.993       .  S
Zn1968     O1973   1.930       .  S
Cd1970     O1972   2.074       .  S
Cd1970     O1973   2.000       .  S
Cd1971     O1975   2.071       .  S
Cd1971     O1984   2.079       .  S
Cd1971     O1973   2.010       .  S
O1972      C1982   1.276       .  A
O1973     Cd1974   2.007       .  S
O1975      C1982   1.276       .  A
C1977      O1981   1.271       .  A
C1983      O1984   1.276       .  A
C1985      C1986   1.410       .  A
C1985      C1990   1.410       .  A
C1986      C1987   1.400       .  A
C1986      H1991   1.084       .  S
C1987      C1988   1.398       .  A
C1988      C1989   1.399       .  A
C1988      H1992   1.085       .  S
C1989      C1990   1.401       .  A
C1990      H1993   1.084       .  S
C1994      C1995   1.410       .  A
C1994      C1999   1.410       .  A
C1995      C1996   1.402       .  A
C1995      H2000   1.084       .  S
C1996      C1997   1.399       .  A
C1997      C1998   1.398       .  A
C1997      H2001   1.085       .  S
C1998      C1999   1.400       .  A
C1999      H2002   1.084       .  S
O2003      C2019   1.271       .  A
C2004      C2046   1.459       .  S
C2004      O2020   1.272       .  A
C2004      O2017   1.275       .  A
O2005     Cd2012   2.088       .  S
O2006      C2024   1.276       .  A
O2006     Cd2015   2.075       .  S
Zn2009     O2020   2.009       .  S
Zn2009     O2022   1.993       .  S
Zn2009     O2014   1.930       .  S
O2010      C2021   1.276       .  A
O2010     Cd2015   2.075       .  S
Cd2011     O2013   2.069       .  S
Cd2012     O2016   2.078       .  S
Cd2012     O2025   2.070       .  S
O2013      C2023   1.274       .  A
O2014     Cd2015   2.000       .  S
Cd2015     O2017   2.080       .  S
O2016      C2023   1.275       .  A
C2018      O2022   1.271       .  A
C2023      C2027   1.459       .  S
O2026      C2042   1.271       .  A
C2027      O2043   1.272       .  A
C2027      O2040   1.275       .  A
O2028      C2041   1.274       .  A
O2028     Cd2035   2.088       .  S
O2029      C2047   1.276       .  A
O2029     Cd2038   2.075       .  S
O2031      C2042   1.274       .  A
Zn2032     O2043   2.008       .  S
Zn2032     O2045   1.993       .  S
Zn2032     O2037   1.930       .  S
O2033      C2044   1.276       .  A
O2033     Cd2038   2.075       .  S
Cd2034     O2036   2.069       .  S
Cd2034     O2037   2.007       .  S
Cd2035     O2039   2.078       .  S
Cd2035     O2048   2.070       .  S
Cd2035     O2037   2.010       .  S
O2036      C2046   1.274       .  A
O2037     Cd2038   2.000       .  S
Cd2038     O2040   2.080       .  S
O2039      C2046   1.275       .  A
C2041      O2045   1.271       .  A
C2047      O2048   1.276       .  A
