geometry optimzed in LAMMPS
_audit_creation_date              2020-11-30 
_audit_creation_method            'lammps2cif' 
_symmetry_space_group_name_H-M    'P1' 
_symmetry_Int_Tables_number       1 
_symmetry_cell_setting            triclinic 
loop_ 
_symmetry_equiv_pos_as_xyz 
  x,y,z 
_cell_length_a                    41.60379164 
_cell_length_b                    41.614444383253925 
_cell_length_c                    38.69368773760408 
_cell_angle_alpha                 89.8612756303504 
_cell_angle_beta                  90.17753464567818 
_cell_angle_gamma                 119.9966150426286 
loop_ 
_atom_site_label 
_atom_site_type_symbol 
_atom_site_fract_x 
_atom_site_fract_y 
_atom_site_fract_z 
_atom_site_charge 
O1          O  0.13593323  0.27350269  0.04087765    -0.78800
C2          C  0.17167913  0.39648336  0.45303217     1.00600
O3          O  0.14256395  0.37810775  0.47052478    -0.67900
O4          O  0.10611378  0.30632215  0.45881246    -0.71500
Al5        Al  0.12467751  0.33543343  0.99955807     1.49000
C6          C  0.10324125  0.27510929  0.45375316     0.95800
O7          O  0.19361779  0.29980781  0.45899174    -0.77700
O8          O  0.22698607  0.36304380  0.04047834    -0.71300
Al9        Al  0.16481419  0.28950401  0.49989886     1.90100
O10         O  0.23553315  0.35738039  0.47084784    -0.70300
O11         O  0.19604287  0.40329560  0.02787226    -0.70200
O12         O  0.19998356  0.39352423  0.45822241    -0.75800
O13         O  0.13770633  0.36461779  0.04036102    -0.74000
O14         O  0.16672935  0.33347971  0.99952693    -1.10200
O15         O  0.09727036  0.29331739  0.02862399    -0.69400
C16         C  0.10608797  0.27344961  0.04626688     1.01300
C17         C  0.22484763  0.32806154  0.45370414     0.97700
Al18       Al  0.21071572  0.37554111  0.99935047     1.55600
O19         O  0.12192224  0.26455270  0.47113748    -0.74000
C20         C  0.16746722  0.39459191  0.04551157     1.01900
C21         C  0.22710613  0.33331518  0.04617148     0.96800
O22         O  0.20717402  0.30449109  0.02880240    -0.79300
O23         O  0.36297902  0.13628784  0.04182189    -0.78800
C24         C  0.27508214  0.17181972  0.45452762     1.00600
O25         O  0.26452387  0.14266610  0.47198616    -0.67900
O26         O  0.29987931  0.10626385  0.46008946    -0.71500
Al27       Al  0.28949312  0.12483284  0.00089753     1.49000
C28         C  0.32821134  0.10339617  0.45490981     0.95800
O29         O  0.39371020  0.19380391  0.45968072    -0.77700
O30         O  0.36434513  0.22709206  0.04148008    -0.71300
Al31       Al  0.37556394  0.16506061  0.50073048     1.90100
O32         O  0.37811985  0.23570966  0.47173430    -0.70300
O33         O  0.29310610  0.19616737  0.02934389    -0.70200
O34         O  0.30631747  0.20017330  0.45960379    -0.75800
O35         O  0.27347272  0.13780330  0.04178649    -0.74000
O36         O  0.33345666  0.16691205  0.50063141    -1.10200
O37         O  0.30443910  0.09753961  0.02992502    -0.69400
C38         C  0.33322366  0.10647245  0.04744866     1.01300
C39         C  0.39663333  0.22503090  0.45442145     0.97700
Al40       Al  0.33532630  0.21086865  0.50052533     1.55600
O41         O  0.35752191  0.12211924  0.47214247    -0.74000
C42         C  0.27334438  0.16757156  0.04705882     1.01900
C43         C  0.39427899  0.22728679  0.04692128     0.96800
O44         O  0.40312554  0.20745800  0.02940526    -0.79300
C45         C  0.00045433  0.46693193  0.12378688     0.05300
C46         C  0.46665939  0.46689684  0.12425275     0.05300
C47         C  0.46663153  0.00065375  0.12459552     0.05300
C48         C  0.00039455  0.03444718  0.12445602     0.05300
C49         C  0.03419029  0.03448159  0.12401374     0.05300
C50         C  0.03421810  0.00072222  0.12362827     0.05300
C51         C  0.33395615  0.02866205  0.10977026     0.83200
N52         N  0.30360536  0.00080256  0.12555413    -0.75100
C53         C  0.30608978  0.47288725  0.14133468     0.85700
N54         N  0.33868027  0.47293107  0.14133644    -0.75000
C55         C  0.36877543  0.00068379  0.12551651     0.85800
N56         N  0.36642510  0.02848039  0.10971410    -0.76700
C57         C  0.16704838  0.47306018  0.10686212     0.83200
N58         N  0.19741733  0.00089699  0.12271550    -0.75100
C59         C  0.19490828  0.02871436  0.13852131     0.85700
N60         N  0.16227186  0.02856246  0.13852999    -0.75000
C61         C  0.13215886  0.00084778  0.12265874     0.85800
N62         N  0.13451880  0.47314017  0.10681938    -0.76700
C63         C  0.19489359  0.16716454  0.10897280     0.83200
N64         N  0.16222170  0.13472218  0.10872937    -0.75100
C65         C  0.13211273  0.13231859  0.12451019     0.85700
N66         N  0.13452068  0.16232973  0.14051546    -0.75000
C67         C  0.16707754  0.19489836  0.14071371     0.85800
N68         N  0.19744370  0.19743808  0.12494753    -0.76700
C69         C  0.47244269  0.16713970  0.14002026     0.83200
N70         N  0.00023430  0.19745547  0.12409909    -0.75100
C71         C  0.02809433  0.19494251  0.10838431     0.85700
N72         N  0.02803903  0.16235632  0.10856256    -0.75000
C73         C  0.00036481  0.13230052  0.12451157     0.85800
N74         N  0.47262448  0.13467591  0.14024632    -0.76700
C75         C  0.33392191  0.30622153  0.13964738     0.83200
N76         N  0.36641917  0.33883823  0.13983158    -0.75100
C77         C  0.36875865  0.36904177  0.12415791     0.85700
N78         N  0.33863512  0.36676854  0.10832745    -0.75000
C79         C  0.30602656  0.33425418  0.10821283     0.85800
N80         N  0.30355439  0.30380964  0.12385507    -0.76700
C81         C  0.47249780  0.30627070  0.10848115     0.83200
N82         N  0.00041858  0.30384212  0.12433358    -0.75100
C83         C  0.02838074  0.33428123  0.13994187     0.85700
N84         N  0.02831110  0.36680300  0.13973801    -0.75000
C85         C  0.00050075  0.36909471  0.12384771     0.85800
N86         N  0.47264473  0.33889996  0.10820815    -0.76700
O87         O  0.27330320  0.13623429  0.20649727    -0.78800
C88         C  0.39640874  0.17171367  0.29415034     1.00600
O89         O  0.37792012  0.14258951  0.27667254    -0.67900
O90         O  0.30612602  0.10619159  0.28847401    -0.71500
Al91       Al  0.33516850  0.12475009  0.24769962     1.49000
C92         C  0.27488918  0.10328324  0.29352264     0.95800
O93         O  0.29977620  0.19368279  0.28859260    -0.77700
O94         O  0.36274057  0.22698927  0.20689973    -0.71300
Al95       Al  0.28933002  0.16496617  0.24757797     1.90100
O96         O  0.35730273  0.23561068  0.27657603    -0.70300
O97         O  0.40300302  0.19606215  0.21934571    -0.70200
O98         O  0.39348213  0.20003901  0.28902393    -0.75800
O99         O  0.36424214  0.13774549  0.20685086    -0.74000
O100        O  0.33328133  0.16681908  0.24783964    -1.10200
O101        O  0.29298677  0.09744296  0.21864248    -0.69400
C102        C  0.27323034  0.10640297  0.20098509     1.01300
C103        C  0.32805284  0.22493173  0.29382077     0.97700
Al104      Al  0.37536746  0.21076523  0.24797479     1.55600
O105        O  0.26433650  0.12199167  0.27618699    -0.74000
C106        C  0.39419193  0.16749838  0.20164133     1.01900
C107        C  0.33302743  0.22720555  0.20135761     0.96800
O108        O  0.30428940  0.20739111  0.21884221    -0.79300
O109        O  0.20006762  0.30659681  0.28997535    -0.78800
C110        C  0.10629268  0.33339301  0.20209158     1.00600
O111        O  0.09736949  0.30457903  0.21953673    -0.67900
O112        O  0.13771618  0.27366579  0.20766635    -0.71500
Al113      Al  0.12468955  0.28962337  0.24855961     1.49000
C114        C  0.16748785  0.27350119  0.20250443     0.95800
O115        O  0.22689591  0.36457675  0.20811998    -0.77700
O116        O  0.19341635  0.39368197  0.29005936    -0.71300
Al117      Al  0.21072778  0.33556255  0.24906324     1.90100
O118        O  0.20729914  0.40334370  0.22039597    -0.70300
O119        O  0.12175063  0.35748544  0.27736034    -0.70200
O120        O  0.13613064  0.36312593  0.20775273    -0.75800
O121        O  0.10606700  0.29990992  0.28936780    -0.74000
O122        O  0.16672739  0.33360238  0.24892466    -1.10200
O123        O  0.14259360  0.26470661  0.27745763    -0.69400
C124        C  0.17174459  0.27533337  0.29498652     1.01300
C125        C  0.22713901  0.39455144  0.20282461     0.97700
Al126      Al  0.16480023  0.37565020  0.24891538     1.55600
O127        O  0.19608189  0.29331886  0.22024753    -0.74000
C128        C  0.10306699  0.32815833  0.29454022     1.01900
C129        C  0.22472311  0.39675380  0.29526573     0.96800
O130        O  0.23551122  0.37837762  0.27787534    -0.79300
C131        C  0.46580353  0.49991946  0.37423389     0.05300
C132        C  0.46574243  0.46591152  0.37401099     0.05300
C133        C  0.49970341  0.46586250  0.37379556     0.05300
C134        C  0.03371405  0.49981340  0.37374682     0.05300
C135        C  0.03377141  0.03381448  0.37396115     0.05300
C136        C  0.49981543  0.03386266  0.37417600     0.05300
C137        C  0.19461979  0.02644962  0.35565723     0.83200
N138        N  0.19759777  0.49963856  0.37295456    -0.75100
C139        C  0.16793682  0.47285527  0.39030604     0.85700
N140        N  0.13533218  0.47294623  0.39042421    -0.75000
C141        C  0.13228378  0.49969805  0.37308848     0.85800
N142        N  0.16195224  0.02643044  0.35568501    -0.76700
C143        C  0.30478642  0.47334353  0.35777379     0.83200
N144        N  0.30188409  0.50004818  0.37519989    -0.75100
C145        C  0.33166135  0.02679909  0.39252353     0.85700
N146        N  0.36431726  0.02678642  0.39244809    -0.75000
C147        C  0.36727221  0.50013000  0.37496953     0.85800
N148        N  0.33748563  0.47344710  0.35761645    -0.76700
C149        C  0.02654960  0.19484020  0.39148193     0.83200
N150        N  0.02652784  0.16218493  0.39160086    -0.75100
C151        C  0.49979808  0.13245364  0.37423320     0.85700
N152        N  0.47303867  0.13542501  0.35679221    -0.75000
C153        C  0.47295427  0.16802743  0.35676989     0.85800
N154        N  0.49973878  0.19774950  0.37408802    -0.76700
C155        C  0.16798740  0.19494415  0.35730365     0.83200
N156        N  0.13539807  0.16223701  0.35705896    -0.75100
C157        C  0.13240692  0.13244074  0.37435269     0.85700
N158        N  0.16210902  0.13540442  0.39184387    -0.75000
C159        C  0.19475126  0.16806328  0.39198709     0.85800
N160        N  0.19767215  0.19783957  0.37474038    -0.76700
C161        C  0.02624300  0.33146990  0.35663781     0.83200
N162        N  0.02617637  0.36408257  0.35643627    -0.75100
C163        C  0.49957329  0.36717952  0.37384211     0.85700
N164        N  0.47298456  0.33756059  0.39142392    -0.75000
C165        C  0.47293235  0.30488816  0.39154858     0.85800
N166        N  0.49959444  0.30185618  0.37417867    -0.76700
C167        C  0.33150183  0.30491314  0.35631816     0.83200
N168        N  0.30183582  0.30185016  0.37377313    -0.75100
C169        C  0.30480017  0.33146174  0.39126075     0.85700
N170        N  0.33745661  0.36410290  0.39133100    -0.75000
C171        C  0.36713048  0.36723945  0.37384082     0.85800
N172        N  0.36410251  0.33761972  0.35631415    -0.76700
C173        C  0.49984821  0.09788604  0.37428404    -0.10200
C174        C  0.49986378  0.06885495  0.37427576    -0.11800
C175        C  0.06877984  0.06876544  0.37403092    -0.10200
C176        C  0.09782886  0.09780995  0.37415864    -0.11800
C177        C  0.40171061  0.40187984  0.37389535    -0.10200
C178        C  0.43073627  0.43095273  0.37396323    -0.11800
C179        C  0.43086799  0.50000866  0.37455306    -0.10200
C180        C  0.40188126  0.50013159  0.37480167    -0.11800
C181        C  0.06866893  0.49976945  0.37346254    -0.10200
C182        C  0.09770887  0.49975621  0.37324469    -0.11800
C183        C  0.49965231  0.43086317  0.37370634    -0.10200
C184        C  0.49960764  0.40179704  0.37372618    -0.11800
C185        C  0.17129949  0.22603094  0.33812102    -0.10200
C186        C  0.17270927  0.25023517  0.31988985    -0.11800
C187        C  0.05392748  0.32814207  0.33741672    -0.10200
C188        C  0.07679721  0.32692010  0.31924736    -0.11800
C189        C  0.27373376  0.44563572  0.33852105    -0.10200
C190        C  0.24966850  0.42281730  0.32021799    -0.11800
C191        C  0.42242676  0.17266148  0.31912399    -0.10200
C192        C  0.44520760  0.17129733  0.33744536    -0.11800
C193        C  0.22560443  0.05422313  0.33643370    -0.10200
C194        C  0.24975844  0.07708008  0.31826238    -0.11800
C195        C  0.32693200  0.24993093  0.31865913    -0.10200
C196        C  0.32821431  0.27398739  0.33694239    -0.11800
C197        C  0.08079635  0.33254026  0.17667198    -0.10200
C198        C  0.05721210  0.33213196  0.15827068    -0.11800
C199        C  0.33171798  0.27513079  0.15776348    -0.10200
C200        C  0.33212698  0.25189421  0.17604563    -0.11800
C201        C  0.44361014  0.16930352  0.15817404    -0.10200
C202        C  0.41990958  0.16867154  0.17643191    -0.11800
C203        C  0.16864382  0.24890840  0.17731691    -0.10200
C204        C  0.16924849  0.22582408  0.15904280    -0.11800
C205        C  0.24882470  0.08097358  0.17544895    -0.10200
C206        C  0.22584886  0.05743890  0.15692385    -0.11800
C207        C  0.27507503  0.44403505  0.15950171    -0.10200
C208        C  0.25186612  0.42032348  0.17769776    -0.11800
C209        C  0.06889206  0.06920851  0.12407968    -0.10200
C210        C  0.09776203  0.09806967  0.12425563    -0.11800
C211        C  0.00037789  0.09801111  0.12465470    -0.10200
C212        C  0.00036701  0.06914262  0.12465066    -0.11800
C213        C  0.06894149  0.00074719  0.12311795    -0.10200
C214        C  0.09781386  0.00075992  0.12279887    -0.11800
C215        C  0.00050625  0.40339036  0.12365259    -0.10200
C216        C  0.00048844  0.43224228  0.12362063    -0.11800
C217        C  0.43195282  0.43217573  0.12431032    -0.10200
C218        C  0.40307011  0.40332693  0.12427367    -0.11800
C219        C  0.43190082  0.00061011  0.12506841    -0.10200
C220        C  0.40302562  0.00058809  0.12536666    -0.11800
C221        C  0.32710869  0.07724811  0.43011503    -0.10200
C222        C  0.32841720  0.05447281  0.41186190    -0.11800
C223        C  0.33227928  0.08102343  0.07295617    -0.10200
C224        C  0.33176675  0.05745728  0.09143808    -0.11800
C225        C  0.24994433  0.17274563  0.42961715    -0.10200
C226        C  0.22575632  0.17133275  0.41132833    -0.11800
C227        C  0.42263309  0.24999480  0.42944912    -0.10200
C228        C  0.44533906  0.27399825  0.41103890    -0.11800
C229        C  0.22586400  0.16936481  0.09072096    -0.10200
C230        C  0.24887559  0.16873813  0.07236920    -0.11800
C231        C  0.44361733  0.27518449  0.09039872    -0.10200
C232        C  0.41995010  0.25195938  0.07215908    -0.11800
C233        C  0.07710415  0.25001051  0.42893339    -0.10200
C234        C  0.05428661  0.22586377  0.41070983    -0.11800
C235        C  0.08047727  0.24892765  0.07162204    -0.10200
C236        C  0.05685177  0.22587699  0.09001012    -0.11800
C237        C  0.17128575  0.44515087  0.40959894    -0.10200
C238        C  0.17264722  0.42241612  0.42796973    -0.11800
C239        C  0.24980476  0.32684489  0.42889132    -0.10200
C240        C  0.27383671  0.32809121  0.41060989    -0.11800
C241        C  0.16919903  0.44421257  0.08870747    -0.10200
C242        C  0.16862086  0.42045632  0.07055825    -0.11800
C243        C  0.25180909  0.33248163  0.07154582    -0.10200
C244        C  0.27502215  0.33210326  0.08991942    -0.11800
O245        O  0.13593324  0.27350268  0.54087771    -0.78800
C246        C  0.17167892  0.39648316  0.95303226     1.00600
O247        O  0.14256395  0.37810779  0.97052473    -0.67900
O248        O  0.10611378  0.30632214  0.95881244    -0.71500
Al249      Al  0.12467756  0.33543341  0.49955810     1.49000
C250        C  0.10324102  0.27510945  0.95375304     0.95800
O251        O  0.19361782  0.29980785  0.95899173    -0.77700
O252        O  0.22698610  0.36304378  0.54047837    -0.71300
Al253      Al  0.16481410  0.28950402  0.99989882     1.90100
O254        O  0.23553311  0.35738042  0.97084775    -0.70300
O255        O  0.19604279  0.40329559  0.52787226    -0.70200
O256        O  0.19998354  0.39352431  0.95822244    -0.75800
O257        O  0.13770626  0.36461768  0.54036105    -0.74000
O258        O  0.16672938  0.33347970  0.49952695    -1.10200
O259        O  0.09727044  0.29331746  0.52862396    -0.69400
C260        C  0.10608823  0.27344952  0.54626700     1.01300
C261        C  0.22484741  0.32806153  0.95370427     0.97700
Al262      Al  0.21071578  0.37554114  0.49935048     1.55600
O263        O  0.12192228  0.26455271  0.97113753    -0.74000
C264        C  0.16746757  0.39459216  0.54551160     1.01900
C265        C  0.22710646  0.33331547  0.54617168     0.96800
O266        O  0.20717403  0.30449100  0.52880235    -0.79300
O267        O  0.36297898  0.13628784  0.54182192    -0.78800
C268        C  0.27508219  0.17181991  0.95452745     1.00600
O269        O  0.26452389  0.14266605  0.97198620    -0.67900
O270        O  0.29987923  0.10626390  0.96008951    -0.71500
Al271      Al  0.28949304  0.12483284  0.50089750     1.49000
C272        C  0.32821192  0.10339636  0.95490988     0.95800
O273        O  0.39371028  0.19380398  0.95968068    -0.77700
O274        O  0.36434515  0.22709206  0.54148006    -0.71300
Al275      Al  0.37556400  0.16506065  0.00073049     1.90100
O276        O  0.37811994  0.23570972  0.97173435    -0.70300
O277        O  0.29310604  0.19616734  0.52934392    -0.70200
O278        O  0.30631746  0.20017326  0.95960373    -0.75800
O279        O  0.27347272  0.13780324  0.54178644    -0.74000
O280        O  0.33345670  0.16691207  0.00063143    -1.10200
O281        O  0.30443906  0.09753959  0.52992500    -0.69400
C282        C  0.33322359  0.10647240  0.54744866     1.01300
C283        C  0.39663334  0.22503091  0.95442151     0.97700
Al284      Al  0.33532633  0.21086866  0.00052533     1.55600
O285        O  0.35752181  0.12211921  0.97214247    -0.74000
C286        C  0.27334443  0.16757188  0.54705889     1.01900
C287        C  0.39427897  0.22728677  0.54692123     0.96800
O288        O  0.40312555  0.20745801  0.52940523    -0.79300
C289        C  0.00045434  0.46693186  0.62378684     0.05300
C290        C  0.46665935  0.46689678  0.62425273     0.05300
C291        C  0.46663129  0.00065354  0.62459550     0.05300
C292        C  0.00039444  0.03444736  0.62445605     0.05300
C293        C  0.03419034  0.03448148  0.62401370     0.05300
C294        C  0.03421801  0.00072224  0.62362825     0.05300
C295        C  0.33395647  0.02866198  0.60977023     0.83200
N296        N  0.30360519  0.00080253  0.62555420    -0.75100
C297        C  0.30609010  0.47288713  0.64133488     0.85700
N298        N  0.33868018  0.47293127  0.64133660    -0.75000
C299        C  0.36877588  0.00068378  0.62551667     0.85800
N300        N  0.36642482  0.02848041  0.60971404    -0.76700
C301        C  0.16704808  0.47305961  0.60686181     0.83200
N302        N  0.19741736  0.00089717  0.62271565    -0.75100
C303        C  0.19490814  0.02871412  0.63852133     0.85700
N304        N  0.16227187  0.02856251  0.63853011    -0.75000
C305        C  0.13215867  0.00084748  0.62265867     0.85800
N306        N  0.13451886  0.47314041  0.60681963    -0.76700
C307        C  0.19489400  0.16716444  0.60897244     0.83200
N308        N  0.16222149  0.13472223  0.60872963    -0.75100
C309        C  0.13211302  0.13231833  0.62450988     0.85700
N310        N  0.13452050  0.16232985  0.64051565    -0.75000
C311        C  0.16707782  0.19489820  0.64071350     0.85800
N312        N  0.19744342  0.19743821  0.62494776    -0.76700
C313        C  0.47244250  0.16714004  0.64002031     0.83200
N314        N  0.00023388  0.19745525  0.62409930    -0.75100
C315        C  0.02809485  0.19494265  0.60838403     0.85700
N316        N  0.02803882  0.16235625  0.60856262    -0.75000
C317        C  0.00036512  0.13230055  0.62451130     0.85800
N318        N  0.47262452  0.13467571  0.64024625    -0.76700
C319        C  0.33392140  0.30622115  0.63964735     0.83200
N320        N  0.36641939  0.33883851  0.63983147    -0.75100
C321        C  0.36875869  0.36904140  0.62415816     0.85700
N322        N  0.33863508  0.36676862  0.60832751    -0.75000
C323        C  0.30602650  0.33425429  0.60821274     0.85800
N324        N  0.30355458  0.30380970  0.62385518    -0.76700
C325        C  0.47249803  0.30627057  0.60848116     0.83200
N326        N  0.00041898  0.30384219  0.62433374    -0.75100
C327        C  0.02838033  0.33428109  0.63994159     0.85700
N328        N  0.02831126  0.36680297  0.63973807    -0.75000
C329        C  0.00050065  0.36909486  0.62384759     0.85800
N330        N  0.47264468  0.33890004  0.60820806    -0.76700
O331        O  0.27330318  0.13623426  0.70649724    -0.78800
C332        C  0.39640876  0.17171366  0.79415044     1.00600
O333        O  0.37792013  0.14258956  0.77667257    -0.67900
O334        O  0.30612594  0.10619164  0.78847407    -0.71500
Al335      Al  0.33516848  0.12475014  0.74769963     1.49000
C336        C  0.27488939  0.10328325  0.79352263     0.95800
O337        O  0.29977607  0.19368273  0.78859260    -0.77700
O338        O  0.36274056  0.22698927  0.70689980    -0.71300
Al339      Al  0.28932997  0.16496618  0.74757797     1.90100
O340        O  0.35730260  0.23561067  0.77657609    -0.70300
O341        O  0.40300303  0.19606220  0.71934575    -0.70200
O342        O  0.39348203  0.20003902  0.78902406    -0.75800
O343        O  0.36424206  0.13774555  0.70685087    -0.74000
O344        O  0.33328125  0.16681910  0.74783968    -1.10200
O345        O  0.29298675  0.09744297  0.71864255    -0.69400
C346        C  0.27323031  0.10640315  0.70098507     1.01300
C347        C  0.32805296  0.22493185  0.79382076     0.97700
Al348      Al  0.37536741  0.21076524  0.74797487     1.55600
O349        O  0.26433641  0.12199166  0.77618693    -0.74000
C350        C  0.39419212  0.16749855  0.70164135     1.01900
C351        C  0.33302744  0.22720550  0.70135767     0.96800
O352        O  0.30428938  0.20739112  0.71884223    -0.79300
O353        O  0.20006766  0.30659683  0.78997533    -0.78800
C354        C  0.10629271  0.33339302  0.70209164     1.00600
O355        O  0.09736952  0.30457908  0.71953668    -0.67900
O356        O  0.13771622  0.27366585  0.70766633    -0.71500
Al357      Al  0.12468956  0.28962340  0.74855957     1.49000
C358        C  0.16748793  0.27350125  0.70250449     0.95800
O359        O  0.22689598  0.36457678  0.70811998    -0.77700
O360        O  0.19341650  0.39368200  0.79005939    -0.71300
Al361      Al  0.21072779  0.33556256  0.74906322     1.90100
O362        O  0.20729915  0.40334367  0.72039600    -0.70300
O363        O  0.12175068  0.35748541  0.77736030    -0.70200
O364        O  0.13613070  0.36312591  0.70775263    -0.75800
O365        O  0.10606702  0.29990987  0.78936774    -0.74000
O366        O  0.16672743  0.33360239  0.74892468    -1.10200
O367        O  0.14259365  0.26470666  0.77745760    -0.69400
C368        C  0.17174441  0.27533336  0.79498639     1.01300
C369        C  0.22713900  0.39455145  0.70282464     0.97700
Al370      Al  0.16480021  0.37565018  0.74891537     1.55600
O371        O  0.19608193  0.29331886  0.72024744    -0.74000
C372        C  0.10306687  0.32815830  0.79454033     1.01900
C373        C  0.22472255  0.39675381  0.79526579     0.96800
O374        O  0.23551131  0.37837762  0.77787524    -0.79300
C375        C  0.46580325  0.49991937  0.87423386     0.05300
C376        C  0.46574265  0.46591157  0.87401095     0.05300
C377        C  0.49970329  0.46586261  0.87379553     0.05300
C378        C  0.03371416  0.49981342  0.87374682     0.05300
C379        C  0.03377138  0.03381455  0.87396126     0.05300
C380        C  0.49981529  0.03386261  0.87417608     0.05300
C381        C  0.19461905  0.02644965  0.85565716     0.83200
N382        N  0.19759758  0.49963845  0.87295459    -0.75100
C383        C  0.16793698  0.47285550  0.89030589     0.85700
N384        N  0.13533206  0.47294608  0.89042429    -0.75000
C385        C  0.13228397  0.49969840  0.87308827     0.85800
N386        N  0.16195270  0.02643049  0.85568492    -0.76700
C387        C  0.30478659  0.47334360  0.85777391     0.83200
N388        N  0.30188402  0.50004809  0.87519986    -0.75100
C389        C  0.33166161  0.02679906  0.89252342     0.85700
N390        N  0.36431715  0.02678651  0.89244811    -0.75000
C391        C  0.36727234  0.50013004  0.87496954     0.85800
N392        N  0.33748549  0.47344699  0.85761642    -0.76700
C393        C  0.02654969  0.19484050  0.89148212     0.83200
N394        N  0.02652773  0.16218479  0.89160080    -0.75100
C395        C  0.49979808  0.13245384  0.87423340     0.85700
N396        N  0.47303855  0.13542486  0.85679224    -0.75000
C397        C  0.47295439  0.16802779  0.85676987     0.85800
N398        N  0.49973865  0.19774931  0.87408798    -0.76700
C399        C  0.16798706  0.19494362  0.85730377     0.83200
N400        N  0.13539827  0.16223744  0.85705892    -0.75100
C401        C  0.13240679  0.13244026  0.87435307     0.85700
N402        N  0.16210901  0.13540456  0.89184383    -0.75000
C403        C  0.19475127  0.16806311  0.89198721     0.85800
N404        N  0.19767222  0.19783975  0.87474029    -0.76700
C405        C  0.02624311  0.33146982  0.85663769     0.83200
N406        N  0.02617623  0.36408264  0.85643627    -0.75100
C407        C  0.49957326  0.36717915  0.87384210     0.85700
N408        N  0.47298454  0.33756069  0.89142386    -0.75000
C409        C  0.47293245  0.30488812  0.89154850     0.85800
N410        N  0.49959435  0.30185613  0.87417871    -0.76700
C411        C  0.33150210  0.30491305  0.85631785     0.83200
N412        N  0.30183559  0.30185024  0.87377346    -0.75100
C413        C  0.30480043  0.33146149  0.89126040     0.85700
N414        N  0.33745641  0.36410294  0.89133117    -0.75000
C415        C  0.36713062  0.36723926  0.87384060     0.85800
N416        N  0.36410237  0.33761979  0.85631427    -0.76700
C417        C  0.49984803  0.09788594  0.87428412    -0.10200
C418        C  0.49986375  0.06885499  0.87427573    -0.11800
C419        C  0.06877973  0.06876533  0.87403101    -0.10200
C420        C  0.09782895  0.09781017  0.87415872    -0.11800
C421        C  0.40171068  0.40187999  0.87389533    -0.10200
C422        C  0.43073617  0.43095263  0.87396318    -0.11800
C423        C  0.43086812  0.50000872  0.87455302    -0.10200
C424        C  0.40188104  0.50013161  0.87480162    -0.11800
C425        C  0.06866873  0.49976946  0.87346249    -0.10200
C426        C  0.09770895  0.49975622  0.87324466    -0.11800
C427        C  0.49965232  0.43086273  0.87370633    -0.10200
C428        C  0.49960758  0.40179735  0.87372615    -0.11800
C429        C  0.17129953  0.22603117  0.83812088    -0.10200
C430        C  0.17270931  0.25023505  0.81988993    -0.11800
C431        C  0.05392723  0.32814209  0.83741679    -0.10200
C432        C  0.07679735  0.32692010  0.81924722    -0.11800
C433        C  0.27373357  0.44563556  0.83852093    -0.10200
C434        C  0.24966857  0.42281735  0.82021821    -0.11800
C435        C  0.42242673  0.17266155  0.81912397    -0.10200
C436        C  0.44520764  0.17129730  0.83744546    -0.11800
C437        C  0.22560460  0.05422318  0.83643358    -0.10200
C438        C  0.24975829  0.07707993  0.81826244    -0.11800
C439        C  0.32693191  0.24993084  0.81865908    -0.10200
C440        C  0.32821423  0.27398745  0.83694248    -0.11800
C441        C  0.08079617  0.33254018  0.67667180    -0.10200
C442        C  0.05721236  0.33213199  0.65827069    -0.11800
C443        C  0.33171800  0.27513070  0.65776347    -0.10200
C444        C  0.33212698  0.25189419  0.67604559    -0.11800
C445        C  0.44361036  0.16930361  0.65817388    -0.10200
C446        C  0.41990943  0.16867153  0.67643204    -0.11800
C447        C  0.16864381  0.24890832  0.67731686    -0.10200
C448        C  0.16924842  0.22582419  0.65904291    -0.11800
C449        C  0.24882467  0.08097358  0.67544894    -0.10200
C450        C  0.22584886  0.05743900  0.65692394    -0.11800
C451        C  0.27507503  0.44403511  0.65950177    -0.10200
C452        C  0.25186615  0.42032356  0.67769783    -0.11800
C453        C  0.06889195  0.06920847  0.62407965    -0.10200
C454        C  0.09776205  0.09806965  0.62425571    -0.11800
C455        C  0.00037780  0.09801131  0.62465468    -0.10200
C456        C  0.00036710  0.06914244  0.62465068    -0.11800
C457        C  0.06894147  0.00074713  0.62311793    -0.10200
C458        C  0.09781384  0.00075986  0.62279896    -0.11800
C459        C  0.00050633  0.40339023  0.62365259    -0.10200
C460        C  0.00048833  0.43224237  0.62362061    -0.11800
C461        C  0.43195283  0.43217568  0.62431029    -0.10200
C462        C  0.40307013  0.40332693  0.62427369    -0.11800
C463        C  0.43190108  0.00061006  0.62506848    -0.10200
C464        C  0.40302533  0.00058812  0.62536663    -0.11800
C465        C  0.32710881  0.07724825  0.93011501    -0.10200
C466        C  0.32841710  0.05447277  0.91186187    -0.11800
C467        C  0.33227925  0.08102334  0.57295619    -0.10200
C468        C  0.33176666  0.05745719  0.59143803    -0.11800
C469        C  0.24994448  0.17274568  0.92961710    -0.10200
C470        C  0.22575630  0.17133289  0.91132811    -0.11800
C471        C  0.42263311  0.24999486  0.92944903    -0.10200
C472        C  0.44533895  0.27399814  0.91103890    -0.11800
C473        C  0.22586383  0.16936489  0.59072117    -0.10200
C474        C  0.24887575  0.16873807  0.57236900    -0.11800
C475        C  0.44361729  0.27518440  0.59039865    -0.10200
C476        C  0.41995012  0.25195937  0.57215910    -0.11800
C477        C  0.07710429  0.25001064  0.92893347    -0.10200
C478        C  0.05428646  0.22586362  0.91070974    -0.11800
C479        C  0.08047736  0.24892773  0.57162192    -0.10200
C480        C  0.05685173  0.22587690  0.59001029    -0.11800
C481        C  0.17128569  0.44515072  0.90959906    -0.10200
C482        C  0.17264714  0.42241623  0.92796962    -0.11800
C483        C  0.24980496  0.32684488  0.92889117    -0.10200
C484        C  0.27383633  0.32809118  0.91061016    -0.11800
C485        C  0.16919912  0.44421283  0.58870761    -0.10200
C486        C  0.16862090  0.42045615  0.57055806    -0.11800
C487        C  0.25180893  0.33248162  0.57154571    -0.10200
C488        C  0.27502241  0.33210341  0.58991956    -0.11800
O489        O  0.13593309  0.77350256  0.04087762    -0.78800
C490        C  0.17167888  0.89648322  0.45303228     1.00600
O491        O  0.14256400  0.87810778  0.47052466    -0.67900
O492        O  0.10611376  0.80632205  0.45881243    -0.71500
Al493      Al  0.12467753  0.83543340  0.99955811     1.49000
C494        C  0.10324125  0.77510963  0.45375319     0.95800
O495        O  0.19361780  0.79980779  0.45899171    -0.77700
O496        O  0.22698601  0.86304380  0.04047827    -0.71300
Al497      Al  0.16481408  0.78950398  0.49989884     1.90100
O498        O  0.23553308  0.85738034  0.47084781    -0.70300
O499        O  0.19604273  0.90329553  0.02787240    -0.70200
O500        O  0.19998360  0.89352430  0.45822244    -0.75800
O501        O  0.13770617  0.86461768  0.04036099    -0.74000
O502        O  0.16672933  0.83347966  0.99952694    -1.10200
O503        O  0.09727038  0.79331742  0.02862401    -0.69400
C504        C  0.10608818  0.77344946  0.04626692     1.01300
C505        C  0.22484749  0.82806154  0.45370425     0.97700
Al506      Al  0.21071571  0.87554107  0.99935047     1.55600
O507        O  0.12192223  0.76455269  0.47113751    -0.74000
C508        C  0.16746770  0.89459214  0.04551144     1.01900
C509        C  0.22710621  0.83331481  0.04617156     0.96800
O510        O  0.20717402  0.80449101  0.02880243    -0.79300
O511        O  0.36297916  0.63628802  0.04182189    -0.78800
C512        C  0.27508212  0.67181973  0.45452758     1.00600
O513        O  0.26452389  0.64266612  0.47198614    -0.67900
O514        O  0.29987924  0.60626390  0.46008942    -0.71500
Al515      Al  0.28949306  0.62483285  0.00089751     1.49000
C516        C  0.32821177  0.60339637  0.45490991     0.95800
O517        O  0.39371018  0.69380398  0.45968071    -0.77700
O518        O  0.36434519  0.72709215  0.04148015    -0.71300
Al519      Al  0.37556401  0.66506065  0.50073048     1.90100
O520        O  0.37811988  0.73570978  0.47173436    -0.70300
O521        O  0.29310600  0.69616735  0.02934391    -0.70200
O522        O  0.30631741  0.70017331  0.45960374    -0.75800
O523        O  0.27347271  0.63780330  0.04178649    -0.74000
O524        O  0.33345671  0.66691206  0.50063144    -1.10200
O525        O  0.30443925  0.59753969  0.02992503    -0.69400
C526        C  0.33322304  0.60647200  0.04744857     1.01300
C527        C  0.39663332  0.72503086  0.45442142     0.97700
Al528      Al  0.33532629  0.71086865  0.50052536     1.55600
O529        O  0.35752183  0.62211924  0.47214244    -0.74000
C530        C  0.27334439  0.66757155  0.04705880     1.01900
C531        C  0.39427892  0.72728689  0.04692130     0.96800
O532        O  0.40312554  0.70745800  0.02940526    -0.79300
C533        C  0.00045428  0.96693175  0.12378677     0.05300
C534        C  0.46665924  0.96689683  0.12425274     0.05300
C535        C  0.46663135  0.50065371  0.12459552     0.05300
C536        C  0.00039448  0.53444719  0.12445609     0.05300
C537        C  0.03419027  0.53448159  0.12401376     0.05300
C538        C  0.03421811  0.50072207  0.12362829     0.05300
C539        C  0.33395626  0.52866159  0.10977048     0.83200
N540        N  0.30360530  0.50080284  0.12555394    -0.75100
C541        C  0.30608968  0.97288777  0.14133444     0.85700
N542        N  0.33868047  0.97293094  0.14133658    -0.75000
C543        C  0.36877559  0.50068321  0.12551674     0.85800
N544        N  0.36642490  0.52848061  0.10971396    -0.76700
C545        C  0.16704855  0.97305996  0.10686201     0.83200
N546        N  0.19741734  0.50089684  0.12271551    -0.75100
C547        C  0.19490813  0.52871460  0.13852155     0.85700
N548        N  0.16227186  0.52856228  0.13852996    -0.75000
C549        C  0.13215870  0.50084800  0.12265898     0.85800
N550        N  0.13451869  0.97314033  0.10681948    -0.76700
C551        C  0.19489397  0.66716506  0.10897278     0.83200
N552        N  0.16222135  0.63472194  0.10872939    -0.75100
C553        C  0.13211313  0.63231882  0.12451010     0.85700
N554        N  0.13452037  0.66232951  0.14051547    -0.75000
C555        C  0.16707774  0.69489857  0.14071374     0.85800
N556        N  0.19744346  0.69743787  0.12494752    -0.76700
C557        C  0.47244271  0.66714064  0.14002020     0.83200
N558        N  0.00023369  0.69745498  0.12409942    -0.75100
C559        C  0.02809509  0.69494317  0.10838385     0.85700
N560        N  0.02803853  0.66235578  0.10856278    -0.75000
C561        C  0.00036572  0.63230110  0.12451104     0.85800
N562        N  0.47262444  0.63467538  0.14024629    -0.76700
C563        C  0.33392122  0.80622090  0.13964735     0.83200
N564        N  0.36641945  0.83883864  0.13983148    -0.75100
C565        C  0.36875863  0.86904118  0.12415815     0.85700
N566        N  0.33863513  0.86676865  0.10832740    -0.75000
C567        C  0.30602635  0.83425400  0.10821277     0.85800
N568        N  0.30355466  0.80380977  0.12385512    -0.76700
C569        C  0.47249825  0.80627062  0.10848126     0.83200
N570        N  0.00041899  0.80384223  0.12433376    -0.75100
C571        C  0.02838035  0.83428118  0.13994163     0.85700
N572        N  0.02831128  0.86680297  0.13973810    -0.75000
C573        C  0.00050068  0.86909513  0.12384760     0.85800
N574        N  0.47264469  0.83890007  0.10820804    -0.76700
O575        O  0.27330311  0.63623418  0.20649724    -0.78800
C576        C  0.39640878  0.67171391  0.29415038     1.00600
O577        O  0.37792006  0.64258952  0.27667250    -0.67900
O578        O  0.30612590  0.60619157  0.28847401    -0.71500
Al579      Al  0.33516847  0.62475017  0.24769958     1.49000
C580        C  0.27488938  0.60328324  0.29352262     0.95800
O581        O  0.29977621  0.69368285  0.28859263    -0.77700
O582        O  0.36274053  0.72698928  0.20689977    -0.71300
Al583      Al  0.28932996  0.66496618  0.24757797     1.90100
O584        O  0.35730271  0.73561067  0.27657600    -0.70300
O585        O  0.40300295  0.69606219  0.21934574    -0.70200
O586        O  0.39348211  0.70003898  0.28902399    -0.75800
O587        O  0.36424211  0.63774553  0.20685084    -0.74000
O588        O  0.33328128  0.66681914  0.24783963    -1.10200
O589        O  0.29298680  0.59744294  0.21864247    -0.69400
C590        C  0.27323010  0.60640314  0.20098502     1.01300
C591        C  0.32805245  0.72493146  0.29382082     0.97700
Al592      Al  0.37536738  0.71076523  0.24797485     1.55600
O593        O  0.26433643  0.62199167  0.27618695    -0.74000
C594        C  0.39419201  0.66749839  0.20164121     1.01900
C595        C  0.33302732  0.72720532  0.20135771     0.96800
O596        O  0.30428940  0.70739112  0.21884219    -0.79300
O597        O  0.20006774  0.80659689  0.28997528    -0.78800
C598        C  0.10629241  0.83339247  0.20209175     1.00600
O599        O  0.09736951  0.80457914  0.21953660    -0.67900
O600        O  0.13771615  0.77366576  0.20766640    -0.71500
Al601      Al  0.12468952  0.78962334  0.24855962     1.49000
C602        C  0.16748793  0.77350113  0.20250450     0.95800
O603        O  0.22689600  0.86457688  0.20811993    -0.77700
O604        O  0.19341648  0.89368197  0.29005936    -0.71300
Al605      Al  0.21072778  0.83556254  0.24906323     1.90100
O606        O  0.20729916  0.90334375  0.22039598    -0.70300
O607        O  0.12175062  0.85748537  0.27736037    -0.70200
O608        O  0.13613075  0.86312601  0.20775269    -0.75800
O609        O  0.10606703  0.79990982  0.28936771    -0.74000
O610        O  0.16672740  0.83360233  0.24892468    -1.10200
O611        O  0.14259367  0.76470667  0.27745777    -0.69400
C612        C  0.17174427  0.77533319  0.29498642     1.01300
C613        C  0.22713905  0.89455124  0.20282453     0.97700
Al614      Al  0.16480021  0.87565015  0.24891535     1.55600
O615        O  0.19608189  0.79331884  0.22024750    -0.74000
C616        C  0.10306701  0.82815879  0.29454026     1.01900
C617        C  0.22472269  0.89675402  0.29526580     0.96800
O618        O  0.23551128  0.87837754  0.27787529    -0.79300
C619        C  0.46580340  0.99991946  0.37423389     0.05300
C620        C  0.46574259  0.96591152  0.37401098     0.05300
C621        C  0.49970339  0.96586261  0.37379556     0.05300
C622        C  0.03371393  0.99981326  0.37374683     0.05300
C623        C  0.03377124  0.53381428  0.37396115     0.05300
C624        C  0.49981540  0.53386271  0.37417601     0.05300
C625        C  0.19461928  0.52644941  0.35565740     0.83200
N626        N  0.19759759  0.99963841  0.37295469    -0.75100
C627        C  0.16793707  0.97285552  0.39030591     0.85700
N628        N  0.13533208  0.97294603  0.39042435    -0.75000
C629        C  0.13228413  0.99969848  0.37308820     0.85800
N630        N  0.16195264  0.52643072  0.35568490    -0.76700
C631        C  0.30478653  0.97334376  0.35777391     0.83200
N632        N  0.30188402  0.00004799  0.37519981    -0.75100
C633        C  0.33166130  0.52679893  0.39252335     0.85700
N634        N  0.36431729  0.52678662  0.39244818    -0.75000
C635        C  0.36727226  0.00013016  0.37496967     0.85800
N636        N  0.33748555  0.97344692  0.35761637    -0.76700
C637        C  0.02654997  0.69484035  0.39148207     0.83200
N638        N  0.02652774  0.66218484  0.39160077    -0.75100
C639        C  0.49979775  0.63245402  0.37423306     0.85700
N640        N  0.47303874  0.63542466  0.35679228    -0.75000
C641        C  0.47295435  0.66802811  0.35676994     0.85800
N642        N  0.49973864  0.69774922  0.37408797    -0.76700
C643        C  0.16798731  0.69494405  0.35730369     0.83200
N644        N  0.13539812  0.66223705  0.35705906    -0.75100
C645        C  0.13240694  0.63244091  0.37435267     0.85700
N646        N  0.16210908  0.63540440  0.39184393    -0.75000
C647        C  0.19475100  0.66806314  0.39198703     0.85800
N648        N  0.19767225  0.69783960  0.37474039    -0.76700
C649        C  0.02624297  0.83146930  0.35663780     0.83200
N650        N  0.02617630  0.86408293  0.35643626    -0.75100
C651        C  0.49957291  0.86717883  0.37384233     0.85700
N652        N  0.47298485  0.83756102  0.39142374    -0.75000
C653        C  0.47293198  0.80488767  0.39154883     0.85800
N654        N  0.49959473  0.80185646  0.37417853    -0.76700
C655        C  0.33150195  0.80491328  0.35631808     0.83200
N656        N  0.30183567  0.80185017  0.37377317    -0.75100
C657        C  0.30480024  0.83146169  0.39126069     0.85700
N658        N  0.33745656  0.86410293  0.39133104    -0.75000
C659        C  0.36713043  0.86723956  0.37384087     0.85800
N660        N  0.36410237  0.83761962  0.35631412    -0.76700
C661        C  0.49984815  0.59788578  0.37428402    -0.10200
C662        C  0.49986380  0.56885520  0.37427577    -0.11800
C663        C  0.06878012  0.56876580  0.37403092    -0.10200
C664        C  0.09782856  0.59780976  0.37415864    -0.11800
C665        C  0.40171068  0.90187992  0.37389535    -0.10200
C666        C  0.43073623  0.93095271  0.37396323    -0.11800
C667        C  0.43086809  0.00000875  0.37455305    -0.10200
C668        C  0.40188117  0.00013157  0.37480164    -0.11800
C669        C  0.06866892  0.99976957  0.37346253    -0.10200
C670        C  0.09770882  0.99975612  0.37324466    -0.11800
C671        C  0.49965230  0.93086280  0.37370637    -0.10200
C672        C  0.49960762  0.90179733  0.37372610    -0.11800
C673        C  0.17129951  0.72603104  0.33812104    -0.10200
C674        C  0.17270937  0.75023515  0.31988989    -0.11800
C675        C  0.05392725  0.82814223  0.33741682    -0.10200
C676        C  0.07679734  0.82692006  0.31924721    -0.11800
C677        C  0.27373370  0.94563559  0.33852100    -0.10200
C678        C  0.24966859  0.92281736  0.32021806    -0.11800
C679        C  0.42242668  0.67266140  0.31912402    -0.10200
C680        C  0.44520756  0.67129726  0.33744542    -0.11800
C681        C  0.22560468  0.55422332  0.33643360    -0.10200
C682        C  0.24975832  0.57707997  0.31826254    -0.11800
C683        C  0.32693197  0.74993092  0.31865913    -0.10200
C684        C  0.32821422  0.77398733  0.33694231    -0.11800
C685        C  0.08079617  0.83254021  0.17667181    -0.10200
C686        C  0.05721235  0.83213196  0.15827077    -0.11800
C687        C  0.33171796  0.77513068  0.15776347    -0.10200
C688        C  0.33212682  0.75189418  0.17604555    -0.11800
C689        C  0.44361034  0.66930344  0.15817385    -0.10200
C690        C  0.41990943  0.66867159  0.17643202    -0.11800
C691        C  0.16864382  0.74890843  0.17731695    -0.10200
C692        C  0.16924844  0.72582403  0.15904280    -0.11800
C693        C  0.24882472  0.58097358  0.17544901    -0.10200
C694        C  0.22584877  0.55743885  0.15692385    -0.11800
C695        C  0.27507505  0.94403496  0.15950185    -0.10200
C696        C  0.25186620  0.92032356  0.17769768    -0.11800
C697        C  0.06889202  0.56920858  0.12407967    -0.10200
C698        C  0.09776191  0.59806946  0.12425562    -0.11800
C699        C  0.00037781  0.59801118  0.12465472    -0.10200
C700        C  0.00036703  0.56914246  0.12465068    -0.11800
C701        C  0.06894143  0.50074725  0.12311795    -0.10200
C702        C  0.09781394  0.50075978  0.12279886    -0.11800
C703        C  0.00050638  0.90339011  0.12365252    -0.10200
C704        C  0.00048847  0.93224276  0.12362064    -0.11800
C705        C  0.43195284  0.93217567  0.12431033    -0.10200
C706        C  0.40307007  0.90332685  0.12427369    -0.11800
C707        C  0.43190104  0.50061008  0.12506840    -0.10200
C708        C  0.40302527  0.50058811  0.12536661    -0.11800
C709        C  0.32710876  0.57724813  0.43011497    -0.10200
C710        C  0.32841712  0.55447290  0.41186191    -0.11800
C711        C  0.33227922  0.58102333  0.07295622    -0.10200
C712        C  0.33176673  0.55745732  0.09143802    -0.11800
C713        C  0.24994425  0.67274559  0.42961697    -0.10200
C714        C  0.22575641  0.67133281  0.41132829    -0.11800
C715        C  0.42263296  0.74999471  0.42944918    -0.10200
C716        C  0.44533916  0.77399838  0.41103886    -0.11800
C717        C  0.22586396  0.66936482  0.09072089    -0.10200
C718        C  0.24887555  0.66873813  0.07236920    -0.11800
C719        C  0.44361723  0.77518448  0.09039865    -0.10200
C720        C  0.41995016  0.75195941  0.07215913    -0.11800
C721        C  0.07710408  0.75001041  0.42893332    -0.10200
C722        C  0.05428670  0.72586376  0.41070977    -0.11800
C723        C  0.08047733  0.74892774  0.07162198    -0.10200
C724        C  0.05685156  0.72587672  0.09001030    -0.11800
C725        C  0.17128572  0.94515076  0.40959910    -0.10200
C726        C  0.17264720  0.92241622  0.42796967    -0.11800
C727        C  0.24980485  0.82684490  0.42889123    -0.10200
C728        C  0.27383645  0.82809118  0.41060998    -0.11800
C729        C  0.16919910  0.94421256  0.08870749    -0.10200
C730        C  0.16862092  0.92045630  0.07055825    -0.11800
C731        C  0.25180889  0.83248158  0.07154572    -0.10200
C732        C  0.27502237  0.83210321  0.08991951    -0.11800
O733        O  0.13593324  0.77350262  0.54087767    -0.78800
C734        C  0.17167881  0.89648318  0.95303228     1.00600
O735        O  0.14256392  0.87810774  0.97052468    -0.67900
O736        O  0.10611372  0.80632197  0.95881249    -0.71500
Al737      Al  0.12467756  0.83543346  0.49955809     1.49000
C738        C  0.10324127  0.77510974  0.95375317     0.95800
O739        O  0.19361776  0.79980772  0.95899181    -0.77700
O740        O  0.22698599  0.86304381  0.54047835    -0.71300
Al741      Al  0.16481413  0.78950397  0.99989880     1.90100
O742        O  0.23553306  0.85738039  0.97084776    -0.70300
O743        O  0.19604276  0.90329555  0.52787240    -0.70200
O744        O  0.19998354  0.89352428  0.95822245    -0.75800
O745        O  0.13770619  0.86461766  0.54036098    -0.74000
O746        O  0.16672931  0.83347967  0.49952695    -1.10200
O747        O  0.09727046  0.79331744  0.52862403    -0.69400
C748        C  0.10608784  0.77344963  0.54626697     1.01300
C749        C  0.22484778  0.82806165  0.95370412     0.97700
Al750      Al  0.21071572  0.87554105  0.49935051     1.55600
O751        O  0.12192229  0.76455265  0.97113742    -0.74000
C752        C  0.16746792  0.89459243  0.54551149     1.01900
C753        C  0.22710630  0.83331484  0.54617163     0.96800
O754        O  0.20717401  0.80449106  0.52880240    -0.79300
O755        O  0.36297910  0.63628798  0.54182189    -0.78800
C756        C  0.27508210  0.67181972  0.95452761     1.00600
O757        O  0.26452391  0.64266613  0.97198617    -0.67900
O758        O  0.29987934  0.60626389  0.96008945    -0.71500
Al759      Al  0.28949307  0.62483282  0.50089751     1.49000
C760        C  0.32821129  0.60339629  0.95490987     0.95800
O761        O  0.39371026  0.69380405  0.95968066    -0.77700
O762        O  0.36434507  0.72709212  0.54148013    -0.71300
Al763      Al  0.37556395  0.66506063  0.00073048     1.90100
O764        O  0.37811990  0.73570978  0.97173436    -0.70300
O765        O  0.29310607  0.69616737  0.52934386    -0.70200
O766        O  0.30631745  0.70017333  0.95960378    -0.75800
O767        O  0.27347276  0.63780323  0.54178642    -0.74000
O768        O  0.33345672  0.66691212  0.00063143    -1.10200
O769        O  0.30443915  0.59753962  0.52992503    -0.69400
C770        C  0.33322333  0.60647224  0.54744857     1.01300
C771        C  0.39663331  0.72503084  0.95442145     0.97700
Al772      Al  0.33532628  0.71086868  0.00052537     1.55600
O773        O  0.35752192  0.62211931  0.97214247    -0.74000
C774        C  0.27334410  0.66757164  0.54705908     1.01900
C775        C  0.39427906  0.72728665  0.54692116     0.96800
O776        O  0.40312552  0.70745812  0.52940524    -0.79300
C777        C  0.00045436  0.96693167  0.62378684     0.05300
C778        C  0.46665944  0.96689703  0.62425273     0.05300
C779        C  0.46663141  0.50065379  0.62459550     0.05300
C780        C  0.00039452  0.53444709  0.62445604     0.05300
C781        C  0.03419038  0.53448165  0.62401370     0.05300
C782        C  0.03421801  0.50072208  0.62362824     0.05300
C783        C  0.33395641  0.52866136  0.60977055     0.83200
N784        N  0.30360532  0.50080309  0.62555393    -0.75100
C785        C  0.30608997  0.97288774  0.64133454     0.85700
N786        N  0.33868030  0.97293100  0.64133670    -0.75000
C787        C  0.36877578  0.50068320  0.62551697     0.85800
N788        N  0.36642485  0.52848073  0.60971384    -0.76700
C789        C  0.16704843  0.97305970  0.60686181     0.83200
N790        N  0.19741747  0.50089714  0.62271564    -0.75100
C791        C  0.19490784  0.52871433  0.63852137     0.85700
N792        N  0.16227210  0.52856255  0.63853015    -0.75000
C793        C  0.13215836  0.50084743  0.62265864     0.85800
N794        N  0.13451866  0.97314037  0.60681967    -0.76700
C795        C  0.19489370  0.66716435  0.60897256     0.83200
N796        N  0.16222179  0.63472223  0.60872951    -0.75100
C797        C  0.13211270  0.63231852  0.62451024     0.85700
N798        N  0.13452073  0.66232973  0.64051554    -0.75000
C799        C  0.16707760  0.69489830  0.64071383     0.85800
N800        N  0.19744367  0.69743817  0.62494767    -0.76700
C801        C  0.47244238  0.66713968  0.64002031     0.83200
N802        N  0.00023420  0.69745543  0.62409910    -0.75100
C803        C  0.02809447  0.69494250  0.60838419     0.85700
N804        N  0.02803905  0.66235639  0.60856248    -0.75000
C805        C  0.00036480  0.63230049  0.62451154     0.85800
N806        N  0.47262455  0.63467595  0.64024622    -0.76700
C807        C  0.33392130  0.80622111  0.63964719     0.83200
N808        N  0.36641937  0.83883842  0.63983147    -0.75100
C809        C  0.36875857  0.86904135  0.62415812     0.85700
N810        N  0.33863508  0.86676855  0.60832752    -0.75000
C811        C  0.30602642  0.83425436  0.60821271     0.85800
N812        N  0.30355460  0.80380961  0.62385528    -0.76700
C813        C  0.47249835  0.80627061  0.60848137     0.83200
N814        N  0.00041884  0.80384220  0.62433368    -0.75100
C815        C  0.02838042  0.83428110  0.63994170     0.85700
N816        N  0.02831115  0.86680296  0.63973803    -0.75000
C817        C  0.00050080  0.86909507  0.62384765     0.85800
N818        N  0.47264459  0.83890003  0.60820800    -0.76700
O819        O  0.27330322  0.63623432  0.70649725    -0.78800
C820        C  0.39640871  0.67171343  0.79415037     1.00600
O821        O  0.37792009  0.64258958  0.77667257    -0.67900
O822        O  0.30612592  0.60619161  0.78847409    -0.71500
Al823      Al  0.33516843  0.62475012  0.74769965     1.49000
C824        C  0.27488939  0.60328328  0.79352264     0.95800
O825        O  0.29977612  0.69368279  0.78859261    -0.77700
O826        O  0.36274058  0.72698932  0.70689977    -0.71300
Al827      Al  0.28933000  0.66496621  0.74757798     1.90100
O828        O  0.35730269  0.73561071  0.77657606    -0.70300
O829        O  0.40300298  0.69606213  0.71934580    -0.70200
O830        O  0.39348206  0.70003905  0.78902409    -0.75800
O831        O  0.36424208  0.63774552  0.70685090    -0.74000
O832        O  0.33328130  0.66681916  0.74783969    -1.10200
O833        O  0.29298673  0.59744294  0.71864259    -0.69400
C834        C  0.27323013  0.60640302  0.70098498     1.01300
C835        C  0.32805274  0.72493180  0.79382083     0.97700
Al836      Al  0.37536746  0.71076524  0.74797493     1.55600
O837        O  0.26433646  0.62199171  0.77618693    -0.74000
C838        C  0.39419182  0.66749838  0.70164141     1.01900
C839        C  0.33302760  0.72720538  0.70135769     0.96800
O840        O  0.30428943  0.70739113  0.71884224    -0.79300
O841        O  0.20006766  0.80659684  0.78997542    -0.78800
C842        C  0.10629283  0.83339303  0.70209167     1.00600
O843        O  0.09736950  0.80457906  0.71953664    -0.67900
O844        O  0.13771617  0.77366586  0.70766632    -0.71500
Al845      Al  0.12468961  0.78962338  0.74855954     1.49000
C846        C  0.16748848  0.77350136  0.70250455     0.95800
O847        O  0.22689601  0.86457677  0.70812003    -0.77700
O848        O  0.19341653  0.89368203  0.79005935    -0.71300
Al849      Al  0.21072785  0.83556256  0.74906331     1.90100
O850        O  0.20729924  0.90334371  0.72039597    -0.70300
O851        O  0.12175070  0.85748547  0.77736025    -0.70200
O852        O  0.13613065  0.86312591  0.70775265    -0.75800
O853        O  0.10606702  0.79990993  0.78936772    -0.74000
O854        O  0.16672747  0.83360236  0.74892467    -1.10200
O855        O  0.14259367  0.76470662  0.77745762    -0.69400
C856        C  0.17174441  0.77533335  0.79498644     1.01300
C857        C  0.22713902  0.89455128  0.70282461     0.97700
Al858      Al  0.16480029  0.87565019  0.74891535     1.55600
O859        O  0.19608188  0.79331877  0.72024749    -0.74000
C860        C  0.10306696  0.82815827  0.79454030     1.01900
C861        C  0.22472280  0.89675395  0.79526581     0.96800
O862        O  0.23551130  0.87837758  0.77787526    -0.79300
C863        C  0.46580354  0.99991955  0.87423387     0.05300
C864        C  0.46574234  0.96591138  0.87401093     0.05300
C865        C  0.49970352  0.96586262  0.87379551     0.05300
C866        C  0.03371408  0.99981324  0.87374681     0.05300
C867        C  0.03377114  0.53381419  0.87396124     0.05300
C868        C  0.49981555  0.53386284  0.87417597     0.05300
C869        C  0.19461962  0.52644952  0.85565725     0.83200
N870        N  0.19759780  0.99963832  0.87295469    -0.75100
C871        C  0.16793653  0.97285551  0.89030586     0.85700
N872        N  0.13533237  0.97294597  0.89042433    -0.75000
C873        C  0.13228341  0.99969839  0.87308821     0.85800
N874        N  0.16195233  0.52643055  0.85568497    -0.76700
C875        C  0.30478693  0.97334354  0.85777386     0.83200
N876        N  0.30188394  0.00004812  0.87519985    -0.75100
C877        C  0.33166143  0.52679895  0.89252335     0.85700
N878        N  0.36431721  0.52678660  0.89244815    -0.75000
C879        C  0.36727266  0.00013022  0.87496967     0.85800
N880        N  0.33748523  0.97344690  0.85761636    -0.76700
C881        C  0.02654939  0.69484021  0.89148185     0.83200
N882        N  0.02652785  0.66218496  0.89160084    -0.75100
C883        C  0.49979803  0.63245360  0.87423332     0.85700
N884        N  0.47303859  0.63542501  0.85679222    -0.75000
C885        C  0.47295426  0.66802738  0.85676975     0.85800
N886        N  0.49973872  0.69774946  0.87408808    -0.76700
C887        C  0.16798714  0.69494403  0.85730355     0.83200
N888        N  0.13539816  0.66223693  0.85705912    -0.75100
C889        C  0.13240669  0.63244090  0.87435256     0.85700
N890        N  0.16210930  0.63540448  0.89184401    -0.75000
C891        C  0.19475088  0.66806318  0.89198692     0.85800
N892        N  0.19767230  0.69783964  0.87474042    -0.76700
C893        C  0.02624353  0.83146976  0.85663748     0.83200
N894        N  0.02617604  0.86408279  0.85643643    -0.75100
C895        C  0.49957304  0.86717957  0.87384227     0.85700
N896        N  0.47298471  0.83756062  0.89142383    -0.75000
C897        C  0.47293218  0.80488823  0.89154871     0.85800
N898        N  0.49959453  0.80185614  0.87417863    -0.76700
C899        C  0.33150190  0.80491327  0.85631810     0.83200
N900        N  0.30183581  0.80185018  0.87377321    -0.75100
C901        C  0.30479986  0.83146162  0.89126082     0.85700
N902        N  0.33745679  0.86410294  0.89133096    -0.75000
C903        C  0.36713032  0.86723974  0.87384102     0.85800
N904        N  0.36410240  0.83761954  0.85631405    -0.76700
C905        C  0.49984829  0.59788612  0.87428404    -0.10200
C906        C  0.49986372  0.56885491  0.87427575    -0.11800
C907        C  0.06878002  0.56876577  0.87403099    -0.10200
C908        C  0.09782862  0.59780978  0.87415871    -0.11800
C909        C  0.40171052  0.90187972  0.87389529    -0.10200
C910        C  0.43073640  0.93095284  0.87396316    -0.11800
C911        C  0.43086810  0.00000871  0.87455303    -0.10200
C912        C  0.40188110  0.00013157  0.87480164    -0.11800
C913        C  0.06866864  0.99976957  0.87346249    -0.10200
C914        C  0.09770913  0.99975610  0.87324462    -0.11800
C915        C  0.49965221  0.93086312  0.87370632    -0.10200
C916        C  0.49960769  0.90179704  0.87372613    -0.11800
C917        C  0.17129938  0.72603097  0.83812100    -0.10200
C918        C  0.17270930  0.75023510  0.81988990    -0.11800
C919        C  0.05392717  0.82814212  0.83741683    -0.10200
C920        C  0.07679744  0.82692011  0.81924715    -0.11800
C921        C  0.27373359  0.94563562  0.83852096    -0.10200
C922        C  0.24966851  0.92281727  0.82021813    -0.11800
C923        C  0.42242669  0.67266145  0.81912393    -0.10200
C924        C  0.44520763  0.67129736  0.83744539    -0.11800
C925        C  0.22560457  0.55422322  0.83643360    -0.10200
C926        C  0.24975832  0.57708002  0.81826244    -0.11800
C927        C  0.32693193  0.74993086  0.81865904    -0.10200
C928        C  0.32821424  0.77398745  0.83694239    -0.11800
C929        C  0.08079617  0.83254026  0.67667181    -0.10200
C930        C  0.05721236  0.83213199  0.65827079    -0.11800
C931        C  0.33171798  0.77513056  0.65776348    -0.10200
C932        C  0.33212688  0.75189421  0.67604547    -0.11800
C933        C  0.44361018  0.66930357  0.65817395    -0.10200
C934        C  0.41990952  0.66867158  0.67643196    -0.11800
C935        C  0.16864390  0.74890851  0.67731694    -0.10200
C936        C  0.16924857  0.72582410  0.65904282    -0.11800
C937        C  0.24882483  0.58097371  0.67544903    -0.10200
C938        C  0.22584879  0.55743886  0.65692384    -0.11800
C939        C  0.27507501  0.94403497  0.65950192    -0.10200
C940        C  0.25186628  0.92032355  0.67769776    -0.11800
C941        C  0.06889202  0.56920853  0.62407967    -0.10200
C942        C  0.09776208  0.59806967  0.62425574    -0.11800
C943        C  0.00037795  0.59801112  0.62465466    -0.10200
C944        C  0.00036700  0.56914264  0.62465065    -0.11800
C945        C  0.06894158  0.50074722  0.62311794    -0.10200
C946        C  0.09781389  0.50075982  0.62279896    -0.11800
C947        C  0.00050631  0.90339006  0.62365259    -0.10200
C948        C  0.00048843  0.93224276  0.62362062    -0.11800
C949        C  0.43195263  0.93217548  0.62431031    -0.10200
C950        C  0.40307022  0.90332689  0.62427370    -0.11800
C951        C  0.43190102  0.50061014  0.62506849    -0.10200
C952        C  0.40302523  0.50058802  0.62536663    -0.11800
C953        C  0.32710877  0.57724806  0.93011492    -0.10200
C954        C  0.32841711  0.55447296  0.91186194    -0.11800
C955        C  0.33227927  0.58102325  0.57295624    -0.10200
C956        C  0.33176663  0.55745738  0.59143784    -0.11800
C957        C  0.24994426  0.67274565  0.92961701    -0.10200
C958        C  0.22575647  0.67133284  0.91132831    -0.11800
C959        C  0.42263304  0.74999485  0.92944905    -0.10200
C960        C  0.44533906  0.77399820  0.91103888    -0.11800
C961        C  0.22586372  0.66936484  0.59072126    -0.10200
C962        C  0.24887593  0.66873810  0.57236894    -0.11800
C963        C  0.44361712  0.77518440  0.59039857    -0.10200
C964        C  0.41995021  0.75195949  0.57215914    -0.11800
C965        C  0.07710400  0.75001034  0.92893326    -0.10200
C966        C  0.05428683  0.72586389  0.91070990    -0.11800
C967        C  0.08047734  0.74892779  0.57162194    -0.10200
C968        C  0.05685175  0.72587697  0.59001022    -0.11800
C969        C  0.17128573  0.94515068  0.90959910    -0.10200
C970        C  0.17264711  0.92241618  0.92796964    -0.11800
C971        C  0.24980461  0.82684493  0.92889143    -0.10200
C972        C  0.27383682  0.82809126  0.91060987    -0.11800
C973        C  0.16919909  0.94421278  0.58870766    -0.10200
C974        C  0.16862081  0.92045614  0.57055810    -0.11800
C975        C  0.25180884  0.83248158  0.57154567    -0.10200
C976        C  0.27502245  0.83210327  0.58991971    -0.11800
O977        O  0.63593326  0.27350264  0.04087767    -0.78800
C978        C  0.67167891  0.39648326  0.45303223     1.00600
O979        O  0.64256392  0.37810773  0.47052473    -0.67900
O980        O  0.60611376  0.30632209  0.45881246    -0.71500
Al981      Al  0.62467755  0.33543344  0.99955808     1.49000
C982        C  0.60324120  0.27510939  0.45375319     0.95800
O983        O  0.69361777  0.29980774  0.45899178    -0.77700
O984        O  0.72698603  0.36304383  0.04047833    -0.71300
Al985      Al  0.66481410  0.28950402  0.49989884     1.90100
O986        O  0.73553308  0.35738037  0.47084784    -0.70300
O987        O  0.69604281  0.40329562  0.02787228    -0.70200
O988        O  0.69998350  0.39352421  0.45822237    -0.75800
O989        O  0.63770630  0.36461771  0.04036102    -0.74000
O990        O  0.66672936  0.33347973  0.99952691    -1.10200
O991        O  0.59727045  0.29331739  0.02862402    -0.69400
C992        C  0.60608791  0.27344970  0.04626681     1.01300
C993        C  0.72484767  0.32806153  0.45370411     0.97700
Al994      Al  0.71071577  0.37554111  0.99935045     1.55600
O995        O  0.62192220  0.26455266  0.47113745    -0.74000
C996        C  0.66746763  0.39459204  0.04551143     1.01900
C997        C  0.72710633  0.33331508  0.04617162     0.96800
O998        O  0.70717402  0.30449110  0.02880238    -0.79300
O999        O  0.86297903  0.13628791  0.04182190    -0.78800
C1000       C  0.77508208  0.17181971  0.45452760     1.00600
O1001       O  0.76452385  0.14266610  0.47198617    -0.67900
O1002       O  0.79987927  0.10626384  0.46008943    -0.71500
Al1003     Al  0.78949305  0.12483283  0.00089753     1.49000
C1004       C  0.82821126  0.10339625  0.45490988     0.95800
O1005       O  0.89371013  0.19380393  0.45968066    -0.77700
O1006       O  0.86434508  0.22709211  0.04148010    -0.71300
Al1007     Al  0.87556392  0.16506063  0.50073044     1.90100
O1008       O  0.87811983  0.23570970  0.47173432    -0.70300
O1009       O  0.79310605  0.19616737  0.02934389    -0.70200
O1010       O  0.80631739  0.20017329  0.45960377    -0.75800
O1011       O  0.77347276  0.13780325  0.04178644    -0.74000
O1012       O  0.83345664  0.16691206  0.50063143    -1.10200
O1013       O  0.80443911  0.09753960  0.02992500    -0.69400
C1014       C  0.83322350  0.10647240  0.04744860     1.01300
C1015       C  0.89663327  0.22503092  0.45442139     0.97700
Al1016     Al  0.83532627  0.21086864  0.50052533     1.55600
O1017       O  0.85752183  0.12211925  0.47214246    -0.74000
C1018       C  0.77334423  0.16757165  0.04705892     1.01900
C1019       C  0.89427908  0.22728671  0.04692119     0.96800
O1020       O  0.90312552  0.20745808  0.02940530    -0.79300
C1021       C  0.50045435  0.46693188  0.12378679     0.05300
C1022       C  0.96665939  0.46689678  0.12425278     0.05300
C1023       C  0.96663130  0.00065367  0.12459554     0.05300
C1024       C  0.50039441  0.03444715  0.12445609     0.05300
C1025       C  0.53419048  0.03448171  0.12401376     0.05300
C1026       C  0.53421795  0.00072213  0.12362827     0.05300
C1027       C  0.83395656  0.02866206  0.10977027     0.83200
N1028       N  0.80360519  0.00080255  0.12555413    -0.75100
C1029       C  0.80608953  0.47288725  0.14133469     0.85700
N1030       N  0.83868061  0.47293112  0.14133642    -0.75000
C1031       C  0.86877582  0.00068379  0.12551652     0.85800
N1032       N  0.86642487  0.02848045  0.10971407    -0.76700
C1033       C  0.66704868  0.47306028  0.10686219     0.83200
N1034       N  0.69741748  0.00089703  0.12271552    -0.75100
C1035       C  0.69490787  0.02871439  0.13852132     0.85700
N1036       N  0.66227207  0.02856249  0.13853001    -0.75000
C1037       C  0.63215857  0.00084773  0.12265870     0.85800
N1038       N  0.63451863  0.47314018  0.10681939    -0.76700
C1039       C  0.69489338  0.16716433  0.10897280     0.83200
N1040       N  0.66222198  0.13472233  0.10872930    -0.75100
C1041       C  0.63211232  0.13231847  0.12451033     0.85700
N1042       N  0.63452085  0.16232977  0.14051542    -0.75000
C1043       C  0.66707739  0.19489834  0.14071388     0.85800
N1044       N  0.69744385  0.19743811  0.12494753    -0.76700
C1045       C  0.97244238  0.16713973  0.14002035     0.83200
N1046       N  0.50023410  0.19745545  0.12409915    -0.75100
C1047       C  0.52809455  0.19494231  0.10838414     0.85700
N1048       N  0.52803899  0.16235643  0.10856256    -0.75000
C1049       C  0.50036501  0.13230047  0.12451144     0.85800
N1050       N  0.97262456  0.13467585  0.14024622    -0.76700
C1051       C  0.83392179  0.30622185  0.13964716     0.83200
N1052       N  0.86641912  0.33883803  0.13983162    -0.75100
C1053       C  0.86875884  0.36904199  0.12415781     0.85700
N1054       N  0.83863496  0.36676829  0.10832749    -0.75000
C1055       C  0.80602677  0.33425485  0.10821259     0.85800
N1056       N  0.80355445  0.30380934  0.12385531    -0.76700
C1057       C  0.97249825  0.30627059  0.10848132     0.83200
N1058       N  0.50041897  0.30384222  0.12433379    -0.75100
C1059       C  0.52838027  0.33428110  0.13994164     0.85700
N1060       N  0.52831122  0.36680299  0.13973812    -0.75000
C1061       C  0.50050063  0.36909490  0.12384761     0.85800
N1062       N  0.97264466  0.33890013  0.10820807    -0.76700
O1063       O  0.77330320  0.13623431  0.20649722    -0.78800
C1064       C  0.89640877  0.17171366  0.29415033     1.00600
O1065       O  0.87792006  0.14258950  0.27667251    -0.67900
O1066       O  0.80612595  0.10619160  0.28847404    -0.71500
Al1067     Al  0.83516844  0.12475007  0.24769961     1.49000
C1068       C  0.77488940  0.10328327  0.29352262     0.95800
O1069       O  0.79977617  0.19368277  0.28859264    -0.77700
O1070       O  0.86274053  0.22698930  0.20689969    -0.71300
Al1071     Al  0.78933001  0.16496621  0.24757796     1.90100
O1072       O  0.85730267  0.23561072  0.27657600    -0.70300
O1073       O  0.90300295  0.19606212  0.21934579    -0.70200
O1074       O  0.89348209  0.20003901  0.28902398    -0.75800
O1075       O  0.86424209  0.13774550  0.20685083    -0.74000
O1076       O  0.83328127  0.16681908  0.24783966    -1.10200
O1077       O  0.79298672  0.09744293  0.21864254    -0.69400
C1078       C  0.77323018  0.10640309  0.20098505     1.01300
C1079       C  0.82805277  0.22493174  0.29382080     0.97700
Al1080     Al  0.87536744  0.21076521  0.24797485     1.55600
O1081       O  0.76433647  0.12199172  0.27618690    -0.74000
C1082       C  0.89419176  0.16749828  0.20164128     1.01900
C1083       C  0.83302775  0.22720552  0.20135768     0.96800
O1084       O  0.80428940  0.20739111  0.21884227    -0.79300
O1085       O  0.70006768  0.30659683  0.28997538    -0.78800
C1086       C  0.60629281  0.33339300  0.20209168     1.00600
O1087       O  0.59736950  0.30457903  0.21953666    -0.67900
O1088       O  0.63771617  0.27366580  0.20766634    -0.71500
Al1089     Al  0.62468960  0.28962336  0.24855956     1.49000
C1090       C  0.66748837  0.27350129  0.20250448     0.95800
O1091       O  0.72689597  0.36457677  0.20811998    -0.77700
O1092       O  0.69341651  0.39368201  0.29005935    -0.71300
Al1093     Al  0.71072785  0.33556257  0.24906328     1.90100
O1094       O  0.70729919  0.40334372  0.22039599    -0.70300
O1095       O  0.62175065  0.35748543  0.27736027    -0.70200
O1096       O  0.63613063  0.36312589  0.20775266    -0.75800
O1097       O  0.60606703  0.29990991  0.28936775    -0.74000
O1098       O  0.66672746  0.33360237  0.24892467    -1.10200
O1099       O  0.64259368  0.26470661  0.27745764    -0.69400
C1100       C  0.67174443  0.27533335  0.29498643     1.01300
C1101       C  0.72713917  0.39455138  0.20282457     0.97700
Al1102     Al  0.66480025  0.37565018  0.24891534     1.55600
O1103       O  0.69608190  0.29331883  0.22024750    -0.74000
C1104       C  0.60306695  0.32815823  0.29454032     1.01900
C1105       C  0.72472276  0.39675386  0.29526577     0.96800
O1106       O  0.73551132  0.37837760  0.27787534    -0.79300
C1107       C  0.96580349  0.49991945  0.37423389     0.05300
C1108       C  0.96574245  0.46591150  0.37401099     0.05300
C1109       C  0.99970344  0.46586250  0.37379556     0.05300
C1110       C  0.53371406  0.49981342  0.37374682     0.05300
C1111       C  0.53377131  0.03381438  0.37396116     0.05300
C1112       C  0.99981529  0.03386257  0.37417601     0.05300
C1113       C  0.69461973  0.02644959  0.35565725     0.83200
N1114       N  0.69759776  0.49963854  0.37295458    -0.75100
C1115       C  0.66793672  0.47285529  0.39030603     0.85700
N1116       N  0.63533225  0.47294619  0.39042424    -0.75000
C1117       C  0.63228364  0.49969820  0.37308838     0.85800
N1118       N  0.66195222  0.02643047  0.35568500    -0.76700
C1119       C  0.80478688  0.47334349  0.35777376     0.83200
N1120       N  0.80188401  0.50004821  0.37519991    -0.75100
C1121       C  0.83166151  0.02679906  0.39252351     0.85700
N1122       N  0.86431719  0.02678646  0.39244811    -0.75000
C1123       C  0.86727252  0.50013012  0.37496961     0.85800
N1124       N  0.83748543  0.47344705  0.35761642    -0.76700
C1125       C  0.52654956  0.19484020  0.39148186     0.83200
N1126       N  0.52652787  0.16218496  0.39160087    -0.75100
C1127       C  0.99979808  0.13245370  0.37423325     0.85700
N1128       N  0.97303861  0.13542498  0.35679218    -0.75000
C1129       C  0.97295431  0.16802741  0.35676988     0.85800
N1130       N  0.99973870  0.19774945  0.37408800    -0.76700
C1131       C  0.66798714  0.19494405  0.35730357     0.83200
N1132       N  0.63539825  0.16223701  0.35705910    -0.75100
C1133       C  0.63240647  0.13244069  0.37435248     0.85700
N1134       N  0.66210936  0.13540451  0.39184399    -0.75000
C1135       C  0.69475083  0.16806314  0.39198695     0.85800
N1136       N  0.69767234  0.19783965  0.37474047    -0.76700
C1137       C  0.52624334  0.33146981  0.35663760     0.83200
N1138       N  0.52617612  0.36408270  0.35643639    -0.75100
C1139       C  0.99957300  0.36717954  0.37384234     0.85700
N1140       N  0.97298474  0.33756060  0.39142385    -0.75000
C1141       C  0.97293213  0.30488823  0.39154877     0.85800
N1142       N  0.99959462  0.30185614  0.37417857    -0.76700
C1143       C  0.83150158  0.30491308  0.35631819     0.83200
N1144       N  0.80183587  0.30185017  0.37377308    -0.75100
C1145       C  0.80479983  0.33146169  0.39126090     0.85700
N1146       N  0.83745669  0.36410294  0.39133095    -0.75000
C1147       C  0.86713028  0.36723948  0.37384088     0.85800
N1148       N  0.86410251  0.33761976  0.35631404    -0.76700
C1149       C  0.99984827  0.09788596  0.37428401    -0.10200
C1150       C  0.99986378  0.06885509  0.37427577    -0.11800
C1151       C  0.56877975  0.06876538  0.37403091    -0.10200
C1152       C  0.59782889  0.09781000  0.37415865    -0.11800
C1153       C  0.90171060  0.40187984  0.37389530    -0.10200
C1154       C  0.93073632  0.43095272  0.37396322    -0.11800
C1155       C  0.93086804  0.50000867  0.37455306    -0.10200
C1156       C  0.90188121  0.50013165  0.37480170    -0.11800
C1157       C  0.56866869  0.49976949  0.37346252    -0.10200
C1158       C  0.59770904  0.49975626  0.37324465    -0.11800
C1159       C  0.99965228  0.43086316  0.37370636    -0.10200
C1160       C  0.99960772  0.40179700  0.37372616    -0.11800
C1161       C  0.67129943  0.22603100  0.33812104    -0.10200
C1162       C  0.67270931  0.25023511  0.31988992    -0.11800
C1163       C  0.55392726  0.32814213  0.33741677    -0.10200
C1164       C  0.57679738  0.32692007  0.31924722    -0.11800
C1165       C  0.77373367  0.44563561  0.33852095    -0.10200
C1166       C  0.74966862  0.42281743  0.32021809    -0.11800
C1167       C  0.92242673  0.17266147  0.31912395    -0.10200
C1168       C  0.94520756  0.17129737  0.33744533    -0.11800
C1169       C  0.72560456  0.05422321  0.33643364    -0.10200
C1170       C  0.74975839  0.07708006  0.31826241    -0.11800
C1171       C  0.82693199  0.24993092  0.31865910    -0.10200
C1172       C  0.82821427  0.27398743  0.33694234    -0.11800
C1173       C  0.58079613  0.33254024  0.17667182    -0.10200
C1174       C  0.55721239  0.33213199  0.15827084    -0.11800
C1175       C  0.83171799  0.27513051  0.15776365    -0.10200
C1176       C  0.83212689  0.25189436  0.17604551    -0.11800
C1177       C  0.94361023  0.16930354  0.15817391    -0.10200
C1178       C  0.91990950  0.16867154  0.17643194    -0.11800
C1179       C  0.66864389  0.24890850  0.17731697    -0.10200
C1180       C  0.66924862  0.22582404  0.15904275    -0.11800
C1181       C  0.74882466  0.08097358  0.17544895    -0.10200
C1182       C  0.72584890  0.05743895  0.15692389    -0.11800
C1183       C  0.77507513  0.44403512  0.15950168    -0.10200
C1184       C  0.75186609  0.42032346  0.17769778    -0.11800
C1185       C  0.56889185  0.06920835  0.12407967    -0.10200
C1186       C  0.59776230  0.09806985  0.12425561    -0.11800
C1187       C  0.50037794  0.09801121  0.12465470    -0.10200
C1188       C  0.50036706  0.06914264  0.12465069    -0.11800
C1189       C  0.56894156  0.00074715  0.12311794    -0.10200
C1190       C  0.59781389  0.00075984  0.12279883    -0.11800
C1191       C  0.50050631  0.40339025  0.12365251    -0.10200
C1192       C  0.50048832  0.43224240  0.12362063    -0.11800
C1193       C  0.93195281  0.43217569  0.12431032    -0.10200
C1194       C  0.90307008  0.40332679  0.12427365    -0.11800
C1195       C  0.93190096  0.00061008  0.12506832    -0.10200
C1196       C  0.90302533  0.00058807  0.12536664    -0.11800
C1197       C  0.82710872  0.07724802  0.43011495    -0.10200
C1198       C  0.82841707  0.05447285  0.41186193    -0.11800
C1199       C  0.83227929  0.08102340  0.07295619    -0.10200
C1200       C  0.83176668  0.05745734  0.09143803    -0.11800
C1201       C  0.74994422  0.17274560  0.42961701    -0.10200
C1202       C  0.72575643  0.17133279  0.41132834    -0.11800
C1203       C  0.92263298  0.24999479  0.42944910    -0.10200
C1204       C  0.94533914  0.27399826  0.41103885    -0.11800
C1205       C  0.72586388  0.16936479  0.09072100    -0.10200
C1206       C  0.74887573  0.16873808  0.07236912    -0.11800
C1207       C  0.94361717  0.27518442  0.09039864    -0.10200
C1208       C  0.91995019  0.25195946  0.07215916    -0.11800
C1209       C  0.57710407  0.25001042  0.42893333    -0.10200
C1210       C  0.55428675  0.22586379  0.41070982    -0.11800
C1211       C  0.58047724  0.24892764  0.07162205    -0.10200
C1212       C  0.55685180  0.22587703  0.09001010    -0.11800
C1213       C  0.67128572  0.44515082  0.40959898    -0.10200
C1214       C  0.67264713  0.42241615  0.42796970    -0.11800
C1215       C  0.74980453  0.32684487  0.42889148    -0.10200
C1216       C  0.77383677  0.32809121  0.41060987    -0.11800
C1217       C  0.66919904  0.44421249  0.08870741    -0.10200
C1218       C  0.66862082  0.42045635  0.07055828    -0.11800
C1219       C  0.75180891  0.33248166  0.07154574    -0.10200
C1220       C  0.77502241  0.33210324  0.08991962    -0.11800
O1221       O  0.63593329  0.27350265  0.54087762    -0.78800
C1222       C  0.67167897  0.39648313  0.95303228     1.00600
O1223       O  0.64256394  0.37810777  0.97052472    -0.67900
O1224       O  0.60611381  0.30632215  0.95881249    -0.71500
Al1225     Al  0.62467749  0.33543339  0.49955810     1.49000
C1226       C  0.60324119  0.27510936  0.95375312     0.95800
O1227       O  0.69361784  0.29980783  0.95899177    -0.77700
O1228       O  0.72698596  0.36304372  0.54047835    -0.71300
Al1229     Al  0.66481413  0.28950403  0.99989883     1.90100
O1230       O  0.73553313  0.35738042  0.97084777    -0.70300
O1231       O  0.69604279  0.40329556  0.52787227    -0.70200
O1232       O  0.69998356  0.39352433  0.95822240    -0.75800
O1233       O  0.63770627  0.36461773  0.54036106    -0.74000
O1234       O  0.66672930  0.33347968  0.49952694    -1.10200
O1235       O  0.59727045  0.29331740  0.52862401    -0.69400
C1236       C  0.60608779  0.27344956  0.54626697     1.01300
C1237       C  0.72484757  0.32806153  0.95370415     0.97700
Al1238     Al  0.71071567  0.37554108  0.49935048     1.55600
O1239       O  0.62192231  0.26455273  0.97113747    -0.74000
C1240       C  0.66746719  0.39459193  0.54551161     1.01900
C1241       C  0.72710648  0.33331538  0.54617172     0.96800
O1242       O  0.70717393  0.30449097  0.52880238    -0.79300
O1243       O  0.86297898  0.13628786  0.54182187    -0.78800
C1244       C  0.77508225  0.17181991  0.95452757     1.00600
O1245       O  0.76452383  0.14266604  0.97198621    -0.67900
O1246       O  0.79987929  0.10626388  0.96008947    -0.71500
Al1247     Al  0.78949303  0.12483285  0.50089754     1.49000
C1248       C  0.82821141  0.10339630  0.95490983     0.95800
O1249       O  0.89371018  0.19380402  0.95968069    -0.77700
O1250       O  0.86434509  0.22709207  0.54148008    -0.71300
Al1251     Al  0.87556398  0.16506062  0.00073048     1.90100
O1252       O  0.87811976  0.23570972  0.97173434    -0.70300
O1253       O  0.79310604  0.19616732  0.52934392    -0.70200
O1254       O  0.80631740  0.20017326  0.95960382    -0.75800
O1255       O  0.77347272  0.13780324  0.54178649    -0.74000
O1256       O  0.83345669  0.16691207  0.00063143    -1.10200
O1257       O  0.80443906  0.09753959  0.52992500    -0.69400
C1258       C  0.83322366  0.10647244  0.54744863     1.01300
C1259       C  0.89663350  0.22503080  0.95442139     0.97700
Al1260     Al  0.83532630  0.21086866  0.00052535     1.55600
O1261       O  0.85752187  0.12211925  0.97214251    -0.74000
C1262       C  0.77334437  0.16757185  0.54705895     1.01900
C1263       C  0.89427897  0.22728677  0.54692122     0.96800
O1264       O  0.90312548  0.20745802  0.52940517    -0.79300
C1265       C  0.50045435  0.46693190  0.62378684     0.05300
C1266       C  0.96665944  0.46689688  0.62425273     0.05300
C1267       C  0.96663151  0.00065359  0.62459549     0.05300
C1268       C  0.50039455  0.03444729  0.62445604     0.05300
C1269       C  0.53419030  0.03448148  0.62401370     0.05300
C1270       C  0.53421814  0.00072230  0.62362824     0.05300
C1271       C  0.83395615  0.02866193  0.60977027     0.83200
N1272       N  0.80360541  0.00080263  0.62555415    -0.75100
C1273       C  0.80608954  0.47288714  0.64133487     0.85700
N1274       N  0.83868058  0.47293136  0.64133655    -0.75000
C1275       C  0.86877534  0.00068368  0.62551672     0.85800
N1276       N  0.86642507  0.02848037  0.60971406    -0.76700
C1277       C  0.66704802  0.47305962  0.60686181     0.83200
N1278       N  0.69741752  0.00089713  0.62271563    -0.75100
C1279       C  0.69490793  0.02871413  0.63852134     0.85700
N1280       N  0.66227208  0.02856250  0.63853010    -0.75000
C1281       C  0.63215846  0.00084762  0.62265875     0.85800
N1282       N  0.63451890  0.47314037  0.60681961    -0.76700
C1283       C  0.69489384  0.16716444  0.60897258     0.83200
N1284       N  0.66222165  0.13472217  0.60872956    -0.75100
C1285       C  0.63211289  0.13231842  0.62451011     0.85700
N1286       N  0.63452067  0.16232976  0.64051558    -0.75000
C1287       C  0.66707770  0.19489825  0.64071371     0.85800
N1288       N  0.69744360  0.19743814  0.62494768    -0.76700
C1289       C  0.97244297  0.16714008  0.64002005     0.83200
N1290       N  0.50023421  0.19745527  0.62409915    -0.75100
C1291       C  0.52809462  0.19494283  0.60838417     0.85700
N1292       N  0.52803894  0.16235613  0.60856259    -0.75000
C1293       C  0.50036493  0.13230070  0.62451147     0.85800
N1294       N  0.97262429  0.13467580  0.64024636    -0.76700
C1295       C  0.83392143  0.30622120  0.63964730     0.83200
N1296       N  0.86641937  0.33883849  0.63983146    -0.75100
C1297       C  0.86875841  0.36904135  0.62415807     0.85700
N1298       N  0.83863518  0.36676872  0.60832755    -0.75000
C1299       C  0.80602632  0.33425418  0.60821279     0.85800
N1300       N  0.80355455  0.30380973  0.62385522    -0.76700
C1301       C  0.97249783  0.30627064  0.60848111     0.83200
N1302       N  0.50041875  0.30384215  0.62433366    -0.75100
C1303       C  0.52838047  0.33428123  0.63994171     0.85700
N1304       N  0.52831117  0.36680291  0.63973805    -0.75000
C1305       C  0.50050054  0.36909478  0.62384758     0.85800
N1306       N  0.97264477  0.33889995  0.60820813    -0.76700
O1307       O  0.77330320  0.13623425  0.70649720    -0.78800
C1308       C  0.89640878  0.17171366  0.79415044     1.00600
O1309       O  0.87792012  0.14258958  0.77667252    -0.67900
O1310       O  0.80612604  0.10619168  0.78847409    -0.71500
Al1311     Al  0.83516846  0.12475012  0.74769965     1.49000
C1312       C  0.77488917  0.10328325  0.79352266     0.95800
O1313       O  0.79977610  0.19368275  0.78859265    -0.77700
O1314       O  0.86274049  0.22698928  0.70689976    -0.71300
Al1315     Al  0.78932996  0.16496619  0.74757795     1.90100
O1316       O  0.85730261  0.23561071  0.77657605    -0.70300
O1317       O  0.90300305  0.19606216  0.71934578    -0.70200
O1318       O  0.89348198  0.20003902  0.78902411    -0.75800
O1319       O  0.86424209  0.13774559  0.70685080    -0.74000
O1320       O  0.83328127  0.16681908  0.74783968    -1.10200
O1321       O  0.79298675  0.09744293  0.71864263    -0.69400
C1322       C  0.77323020  0.10640323  0.70098500     1.01300
C1323       C  0.82805277  0.22493166  0.79382072     0.97700
Al1324     Al  0.87536745  0.21076524  0.74797491     1.55600
O1325       O  0.76433640  0.12199161  0.77618694    -0.74000
C1326       C  0.89419173  0.16749846  0.70164153     1.01900
C1327       C  0.83302791  0.22720563  0.70135759     0.96800
O1328       O  0.80428932  0.20739111  0.71884227    -0.79300
O1329       O  0.70006764  0.30659685  0.78997540    -0.78800
C1330       C  0.60629284  0.33339309  0.70209166     1.00600
O1331       O  0.59736950  0.30457905  0.71953666    -0.67900
O1332       O  0.63771622  0.27366582  0.70766634    -0.71500
Al1333     Al  0.62468955  0.28962340  0.74855956     1.49000
C1334       C  0.66748799  0.27350126  0.70250450     0.95800
O1335       O  0.72689598  0.36457675  0.70812003    -0.77700
O1336       O  0.69341649  0.39368206  0.79005936    -0.71300
Al1337     Al  0.71072777  0.33556258  0.74906326     1.90100
O1338       O  0.70729916  0.40334367  0.72039594    -0.70300
O1339       O  0.62175061  0.35748537  0.77736029    -0.70200
O1340       O  0.63613060  0.36312592  0.70775266    -0.75800
O1341       O  0.60606699  0.29990983  0.78936771    -0.74000
O1342       O  0.66672739  0.33360239  0.74892465    -1.10200
O1343       O  0.64259366  0.26470665  0.77745759    -0.69400
C1344       C  0.67174445  0.27533336  0.79498643     1.01300
C1345       C  0.72713893  0.39455153  0.70282469     0.97700
Al1346     Al  0.66480023  0.37565022  0.74891535     1.55600
O1347       O  0.69608194  0.29331890  0.72024748    -0.74000
C1348       C  0.60306691  0.32815854  0.79454024     1.01900
C1349       C  0.72472272  0.39675377  0.79526573     0.96800
O1350       O  0.73551126  0.37837765  0.77787529    -0.79300
C1351       C  0.96580343  0.49991936  0.87423384     0.05300
C1352       C  0.96574257  0.46591162  0.87401095     0.05300
C1353       C  0.99970330  0.46586249  0.87379552     0.05300
C1354       C  0.53371415  0.49981340  0.87374679     0.05300
C1355       C  0.53377150  0.03381456  0.87396126     0.05300
C1356       C  0.99981533  0.03386262  0.87417608     0.05300
C1357       C  0.69461980  0.02644957  0.85565720     0.83200
N1358       N  0.69759765  0.49963833  0.87295467    -0.75100
C1359       C  0.66793700  0.47285561  0.89030582     0.85700
N1360       N  0.63533207  0.47294611  0.89042427    -0.75000
C1361       C  0.63228388  0.49969827  0.87308835     0.85800
N1362       N  0.66195217  0.02643043  0.85568497    -0.76700
C1363       C  0.80478694  0.47334354  0.85777387     0.83200
N1364       N  0.80188392  0.50004815  0.87519990    -0.75100
C1365       C  0.83166154  0.02679909  0.89252344     0.85700
N1366       N  0.86431720  0.02678655  0.89244814    -0.75000
C1367       C  0.86727254  0.50013010  0.87496958     0.85800
N1368       N  0.83748528  0.47344694  0.85761638    -0.76700
C1369       C  0.52654973  0.19484056  0.89148204     0.83200
N1370       N  0.52652772  0.16218474  0.89160079    -0.75100
C1371       C  0.99979813  0.13245384  0.87423343     0.85700
N1372       N  0.97303853  0.13542489  0.85679219    -0.75000
C1373       C  0.97295440  0.16802768  0.85676983     0.85800
N1374       N  0.99973856  0.19774929  0.87408801    -0.76700
C1375       C  0.66798704  0.19494360  0.85730368     0.83200
N1376       N  0.63539833  0.16223744  0.85705888    -0.75100
C1377       C  0.63240675  0.13244022  0.87435299     0.85700
N1378       N  0.66210910  0.13540457  0.89184383    -0.75000
C1379       C  0.69475120  0.16806309  0.89198715     0.85800
N1380       N  0.69767230  0.19783974  0.87474030    -0.76700
C1381       C  0.52624333  0.33146980  0.85663755     0.83200
N1382       N  0.52617614  0.36408275  0.85643637    -0.75100
C1383       C  0.99957299  0.36717932  0.87384225     0.85700
N1384       N  0.97298471  0.33756069  0.89142384    -0.75000
C1385       C  0.97293216  0.30488813  0.89154878     0.85800
N1386       N  0.99959454  0.30185617  0.87417864    -0.76700
C1387       C  0.83150184  0.30491311  0.85631813     0.83200
N1388       N  0.80183577  0.30185013  0.87377321    -0.75100
C1389       C  0.80480016  0.33146156  0.89126063     0.85700
N1390       N  0.83745662  0.36410292  0.89133107    -0.75000
C1391       C  0.86713042  0.36723933  0.87384077     0.85800
N1392       N  0.86410246  0.33761976  0.85631413    -0.76700
C1393       C  0.99984809  0.09788600  0.87428411    -0.10200
C1394       C  0.99986376  0.06885506  0.87427573    -0.11800
C1395       C  0.56877965  0.06876534  0.87403101    -0.10200
C1396       C  0.59782898  0.09781021  0.87415870    -0.11800
C1397       C  0.90171075  0.40187994  0.87389529    -0.10200
C1398       C  0.93073624  0.43095268  0.87396316    -0.11800
C1399       C  0.93086807  0.50000874  0.87455301    -0.10200
C1400       C  0.90188117  0.50013159  0.87480161    -0.11800
C1401       C  0.56866884  0.49976948  0.87346249    -0.10200
C1402       C  0.59770887  0.49975627  0.87324463    -0.11800
C1403       C  0.99965219  0.43086291  0.87370632    -0.10200
C1404       C  0.99960763  0.40179714  0.87372613    -0.11800
C1405       C  0.67129956  0.22603113  0.83812085    -0.10200
C1406       C  0.67270928  0.25023507  0.81988991    -0.11800
C1407       C  0.55392722  0.32814210  0.83741682    -0.10200
C1408       C  0.57679740  0.32692010  0.81924720    -0.11800
C1409       C  0.77373348  0.44563552  0.83852090    -0.10200
C1410       C  0.74966858  0.42281741  0.82021826    -0.11800
C1411       C  0.92242668  0.17266154  0.81912393    -0.10200
C1412       C  0.94520757  0.17129726  0.83744541    -0.11800
C1413       C  0.72560441  0.05422308  0.83643367    -0.10200
C1414       C  0.74975841  0.07708004  0.81826236    -0.11800
C1415       C  0.82693187  0.24993095  0.81865917    -0.10200
C1416       C  0.82821435  0.27398734  0.83694233    -0.11800
C1417       C  0.58079613  0.33254017  0.67667186    -0.10200
C1418       C  0.55721234  0.33213199  0.65827079    -0.11800
C1419       C  0.83171796  0.27513067  0.65776349    -0.10200
C1420       C  0.83212695  0.25189422  0.67604554    -0.11800
C1421       C  0.94360989  0.16930359  0.65817417    -0.10200
C1422       C  0.91990972  0.16867154  0.67643181    -0.11800
C1423       C  0.66864390  0.24890840  0.67731693    -0.10200
C1424       C  0.66924851  0.22582412  0.65904289    -0.11800
C1425       C  0.74882471  0.08097360  0.67544891    -0.10200
C1426       C  0.72584891  0.05743896  0.65692388    -0.11800
C1427       C  0.77507513  0.44403517  0.65950175    -0.10200
C1428       C  0.75186612  0.42032354  0.67769788    -0.11800
C1429       C  0.56889203  0.06920853  0.62407965    -0.10200
C1430       C  0.59776204  0.09806963  0.62425572    -0.11800
C1431       C  0.50037790  0.09801116  0.62465467    -0.10200
C1432       C  0.50036699  0.06914253  0.62465065    -0.11800
C1433       C  0.56894150  0.00074719  0.62311795    -0.10200
C1434       C  0.59781405  0.00075991  0.62279897    -0.11800
C1435       C  0.50050632  0.40339022  0.62365257    -0.10200
C1436       C  0.50048837  0.43224238  0.62362062    -0.11800
C1437       C  0.93195264  0.43217552  0.62431029    -0.10200
C1438       C  0.90307028  0.40332709  0.62427365    -0.11800
C1439       C  0.93190070  0.00061008  0.62506851    -0.10200
C1440       C  0.90302566  0.00058806  0.62536668    -0.11800
C1441       C  0.82710880  0.07724818  0.93011494    -0.10200
C1442       C  0.82841714  0.05447285  0.91186193    -0.11800
C1443       C  0.83227932  0.08102339  0.57295612    -0.10200
C1444       C  0.83176676  0.05745724  0.59143800    -0.11800
C1445       C  0.74994441  0.17274566  0.92961712    -0.10200
C1446       C  0.72575643  0.17133288  0.91132823    -0.11800
C1447       C  0.92263308  0.24999478  0.92944921    -0.10200
C1448       C  0.94533910  0.27399828  0.91103874    -0.11800
C1449       C  0.72586386  0.16936484  0.59072122    -0.10200
C1450       C  0.74887575  0.16873806  0.57236907    -0.11800
C1451       C  0.94361735  0.27518444  0.59039868    -0.10200
C1452       C  0.91995011  0.25195934  0.57215904    -0.11800
C1453       C  0.57710427  0.25001059  0.92893344    -0.10200
C1454       C  0.55428656  0.22586361  0.91070973    -0.11800
C1455       C  0.58047745  0.24892781  0.57162187    -0.10200
C1456       C  0.55685166  0.22587683  0.59001032    -0.11800
C1457       C  0.67128575  0.44515067  0.90959910    -0.10200
C1458       C  0.67264713  0.42241628  0.92796958    -0.11800
C1459       C  0.74980485  0.32684491  0.92889130    -0.10200
C1460       C  0.77383663  0.32809116  0.91061002    -0.11800
C1461       C  0.66919917  0.44421278  0.58870762    -0.10200
C1462       C  0.66862084  0.42045618  0.57055812    -0.11800
C1463       C  0.75180884  0.33248162  0.57154571    -0.10200
C1464       C  0.77502244  0.33210339  0.58991974    -0.11800
O1465       O  0.63593320  0.77350261  0.04087760    -0.78800
C1466       C  0.67167906  0.89648330  0.45303223     1.00600
O1467       O  0.64256400  0.87810777  0.47052471    -0.67900
O1468       O  0.60611376  0.80632206  0.45881246    -0.71500
Al1469     Al  0.62467751  0.83543342  0.99955808     1.49000
C1470       C  0.60324121  0.77510962  0.45375316     0.95800
O1471       O  0.69361780  0.79980776  0.45899174    -0.77700
O1472       O  0.72698605  0.86304376  0.04047833    -0.71300
Al1473     Al  0.66481414  0.78950399  0.49989881     1.90100
O1474       O  0.73553309  0.85738035  0.47084784    -0.70300
O1475       O  0.69604283  0.90329556  0.02787237    -0.70200
O1476       O  0.69998363  0.89352428  0.45822248    -0.75800
O1477       O  0.63770627  0.86461774  0.04036101    -0.74000
O1478       O  0.66672934  0.83347965  0.99952695    -1.10200
O1479       O  0.59727035  0.79331737  0.02862402    -0.69400
C1480       C  0.60608790  0.77344947  0.04626696     1.01300
C1481       C  0.72484764  0.82806154  0.45370414     0.97700
Al1482     Al  0.71071571  0.87554106  0.99935050     1.55600
O1483       O  0.62192231  0.76455272  0.47113748    -0.74000
C1484       C  0.66746737  0.89459197  0.04551153     1.01900
C1485       C  0.72710606  0.83331491  0.04617146     0.96800
O1486       O  0.70717402  0.80449102  0.02880243    -0.79300
O1487       O  0.86297908  0.63628793  0.04182190    -0.78800
C1488       C  0.77508216  0.67181973  0.45452762     1.00600
O1489       O  0.76452389  0.64266614  0.47198619    -0.67900
O1490       O  0.79987933  0.60626389  0.46008942    -0.71500
Al1491     Al  0.78949313  0.62483287  0.00089752     1.49000
C1492       C  0.82821128  0.60339625  0.45490982     0.95800
O1493       O  0.89371020  0.69380404  0.45968069    -0.77700
O1494       O  0.86434515  0.72709209  0.04148012    -0.71300
Al1495     Al  0.87556395  0.66506061  0.50073045     1.90100
O1496       O  0.87811984  0.73570979  0.47173436    -0.70300
O1497       O  0.79310605  0.69616736  0.02934388    -0.70200
O1498       O  0.80631747  0.70017334  0.45960378    -0.75800
O1499       O  0.77347273  0.63780332  0.04178650    -0.74000
O1500       O  0.83345667  0.66691207  0.50063141    -1.10200
O1501       O  0.80443917  0.59753968  0.02992504    -0.69400
C1502       C  0.83322339  0.60647219  0.04744863     1.01300
C1503       C  0.89663343  0.72503065  0.45442141     0.97700
Al1504     Al  0.83532630  0.71086865  0.50052535     1.55600
O1505       O  0.85752192  0.62211928  0.47214243    -0.74000
C1506       C  0.77334436  0.66757154  0.04705882     1.01900
C1507       C  0.89427901  0.72728693  0.04692136     0.96800
O1508       O  0.90312551  0.70745797  0.02940525    -0.79300
C1509       C  0.50045443  0.96693185  0.12378679     0.05300
C1510       C  0.96665947  0.96689700  0.12425267     0.05300
C1511       C  0.96663144  0.50065367  0.12459551     0.05300
C1512       C  0.50039446  0.53444712  0.12445609     0.05300
C1513       C  0.53419031  0.53448159  0.12401377     0.05300
C1514       C  0.53421804  0.50072210  0.12362826     0.05300
C1515       C  0.83395596  0.52866152  0.10977051     0.83200
N1516       N  0.80360552  0.50080284  0.12555394    -0.75100
C1517       C  0.80609008  0.97288777  0.14133443     0.85700
N1518       N  0.83868016  0.97293087  0.14133662    -0.75000
C1519       C  0.86877520  0.50068321  0.12551674     0.85800
N1520       N  0.86642518  0.52848061  0.10971395    -0.76700
C1521       C  0.66704817  0.97305996  0.10686201     0.83200
N1522       N  0.69741718  0.50089673  0.12271545    -0.75100
C1523       C  0.69490826  0.52871465  0.13852158     0.85700
N1524       N  0.66227179  0.52856228  0.13852997    -0.75000
C1525       C  0.63215889  0.50084798  0.12265897     0.85800
N1526       N  0.63451889  0.97314028  0.10681945    -0.76700
C1527       C  0.69489386  0.66716500  0.10897289     0.83200
N1528       N  0.66222147  0.63472191  0.10872935    -0.75100
C1529       C  0.63211304  0.63231885  0.12451016     0.85700
N1530       N  0.63452053  0.66232952  0.14051541    -0.75000
C1531       C  0.66707761  0.69489856  0.14071381     0.85800
N1532       N  0.69744361  0.69743784  0.12494747    -0.76700
C1533       C  0.97244337  0.66714053  0.14001987     0.83200
N1534       N  0.50023406  0.69745497  0.12409924    -0.75100
C1535       C  0.52809471  0.69494340  0.10838409     0.85700
N1536       N  0.52803874  0.66235568  0.10856269    -0.75000
C1537       C  0.50036521  0.63230127  0.12451134     0.85800
N1538       N  0.97262410  0.63467555  0.14024649    -0.76700
C1539       C  0.83392144  0.80622089  0.13964739     0.83200
N1540       N  0.86641942  0.83883861  0.13983149    -0.75100
C1541       C  0.86875841  0.86904112  0.12415810     0.85700
N1542       N  0.83863527  0.86676876  0.10832739    -0.75000
C1543       C  0.80602632  0.83425375  0.10821291     0.85800
N1544       N  0.80355458  0.80380986  0.12385500    -0.76700
C1545       C  0.97249781  0.80627069  0.10848109     0.83200
N1546       N  0.50041865  0.80384215  0.12433357    -0.75100
C1547       C  0.52838079  0.83428130  0.13994187     0.85700
N1548       N  0.52831112  0.86680299  0.13973800    -0.75000
C1549       C  0.50050078  0.86909496  0.12384768     0.85800
N1550       N  0.97264478  0.83889995  0.10820814    -0.76700
O1551       O  0.77330316  0.63623420  0.20649725    -0.78800
C1552       C  0.89640896  0.67171382  0.29415043     1.00600
O1553       O  0.87792010  0.64258952  0.27667252    -0.67900
O1554       O  0.80612603  0.60619159  0.28847404    -0.71500
Al1555     Al  0.83516852  0.62475014  0.24769963     1.49000
C1556       C  0.77488917  0.60328322  0.29352265     0.95800
O1557       O  0.79977624  0.69368283  0.28859263    -0.77700
O1558       O  0.86274049  0.72698926  0.20689977    -0.71300
Al1559     Al  0.78933001  0.66496618  0.24757796     1.90100
O1560       O  0.85730274  0.73561066  0.27657601    -0.70300
O1561       O  0.90300303  0.69606216  0.21934568    -0.70200
O1562       O  0.89348212  0.70003902  0.28902396    -0.75800
O1563       O  0.86424219  0.63774555  0.20685082    -0.74000
O1564       O  0.83328134  0.66681912  0.24783963    -1.10200
O1565       O  0.79298684  0.59744295  0.21864247    -0.69400
C1566       C  0.77323026  0.60640307  0.20098506     1.01300
C1567       C  0.82805266  0.72493152  0.29382078     0.97700
Al1568     Al  0.87536747  0.71076523  0.24797484     1.55600
O1569       O  0.76433647  0.62199161  0.27618697    -0.74000
C1570       C  0.89419178  0.66749838  0.20164141     1.01900
C1571       C  0.83302772  0.72720547  0.20135759     0.96800
O1572       O  0.80428935  0.70739107  0.21884226    -0.79300
O1573       O  0.70006771  0.80659692  0.28997533    -0.78800
C1574       C  0.60629239  0.83339254  0.20209165     1.00600
O1575       O  0.59736951  0.80457910  0.21953668    -0.67900
O1576       O  0.63771616  0.77366576  0.20766638    -0.71500
Al1577     Al  0.62468947  0.78962331  0.24855962     1.49000
C1578       C  0.66748777  0.77350108  0.20250446     0.95800
O1579       O  0.72689598  0.86457686  0.20811998    -0.77700
O1580       O  0.69341644  0.89368202  0.29005932    -0.71300
Al1581     Al  0.71072774  0.83556254  0.24906325     1.90100
O1582       O  0.70729917  0.90334374  0.22039593    -0.70300
O1583       O  0.62175056  0.85748536  0.27736039    -0.70200
O1584       O  0.63613072  0.86312602  0.20775273    -0.75800
O1585       O  0.60606701  0.79990983  0.28936777    -0.74000
O1586       O  0.66672734  0.83360231  0.24892465    -1.10200
O1587       O  0.64259367  0.76470664  0.27745768    -0.69400
C1588       C  0.67174427  0.77533312  0.29498651     1.01300
C1589       C  0.72713893  0.89455129  0.20282463     0.97700
Al1590     Al  0.66480021  0.87565017  0.24891534     1.55600
O1591       O  0.69608192  0.79331888  0.22024754    -0.74000
C1592       C  0.60306711  0.82815880  0.29454016     1.01900
C1593       C  0.72472289  0.89675399  0.29526576     0.96800
O1594       O  0.73551120  0.87837755  0.27787531    -0.79300
C1595       C  0.96580355  0.99991956  0.37423389     0.05300
C1596       C  0.96574240  0.96591146  0.37401098     0.05300
C1597       C  0.99970349  0.96586260  0.37379556     0.05300
C1598       C  0.53371403  0.99981327  0.37374683     0.05300
C1599       C  0.53377123  0.53381434  0.37396116     0.05300
C1600       C  0.99981543  0.53386273  0.37417600     0.05300
C1601       C  0.69461941  0.52644945  0.35565736     0.83200
N1602       N  0.69759759  0.99963845  0.37295466    -0.75100
C1603       C  0.66793707  0.97285548  0.39030593     0.85700
N1604       N  0.63533205  0.97294605  0.39042434    -0.75000
C1605       C  0.63228421  0.99969844  0.37308823     0.85800
N1606       N  0.66195258  0.52643065  0.35568494    -0.76700
C1607       C  0.80478662  0.97334375  0.35777390     0.83200
N1608       N  0.80188397  0.00004795  0.37519979    -0.75100
C1609       C  0.83166148  0.52679885  0.39252331     0.85700
N1610       N  0.86431720  0.52678663  0.39244819    -0.75000
C1611       C  0.86727240  0.00013020  0.37496970     0.85800
N1612       N  0.83748549  0.97344690  0.35761636    -0.76700
C1613       C  0.52654956  0.69484048  0.39148183     0.83200
N1614       N  0.52652790  0.66218477  0.39160084    -0.75100
C1615       C  0.99979825  0.63245393  0.37423331     0.85700
N1616       N  0.97303859  0.63542479  0.35679213    -0.75000
C1617       C  0.97295465  0.66802799  0.35677010     0.85800
N1618       N  0.99973845  0.69774925  0.37408782    -0.76700
C1619       C  0.66798742  0.69494415  0.35730368     0.83200
N1620       N  0.63539804  0.66223699  0.35705897    -0.75100
C1621       C  0.63240702  0.63244086  0.37435269     0.85700
N1622       N  0.66210898  0.63540437  0.39184387    -0.75000
C1623       C  0.69475122  0.66806322  0.39198709     0.85800
N1624       N  0.69767215  0.69783956  0.37474038    -0.76700
C1625       C  0.52624283  0.83146922  0.35663792     0.83200
N1626       N  0.52617636  0.86408300  0.35643622    -0.75100
C1627       C  0.99957280  0.86717890  0.37384235     0.85700
N1628       N  0.97298481  0.83756104  0.39142376    -0.75000
C1629       C  0.97293208  0.80488765  0.39154879     0.85800
N1630       N  0.99959457  0.80185640  0.37417860    -0.76700
C1631       C  0.83150189  0.80491325  0.35631818     0.83200
N1632       N  0.80183586  0.80185018  0.37377311    -0.75100
C1633       C  0.80480006  0.83146164  0.39126080     0.85700
N1634       N  0.83745676  0.86410301  0.39133097    -0.75000
C1635       C  0.86713037  0.86723958  0.37384094     0.85800
N1636       N  0.86410251  0.83761967  0.35631411    -0.76700
C1637       C  0.99984817  0.59788593  0.37428401    -0.10200
C1638       C  0.99986379  0.56885508  0.37427577    -0.11800
C1639       C  0.56878001  0.56876575  0.37403092    -0.10200
C1640       C  0.59782859  0.59780978  0.37415861    -0.11800
C1641       C  0.90171071  0.90187987  0.37389535    -0.10200
C1642       C  0.93073633  0.93095283  0.37396321    -0.11800
C1643       C  0.93086804  0.00000877  0.37455307    -0.10200
C1644       C  0.90188120  0.00013162  0.37480166    -0.11800
C1645       C  0.56866900  0.99976953  0.37346254    -0.10200
C1646       C  0.59770873  0.99975607  0.37324469    -0.11800
C1647       C  0.99965227  0.93086295  0.37370636    -0.10200
C1648       C  0.99960766  0.90179717  0.37372613    -0.11800
C1649       C  0.67129953  0.72603093  0.33812107    -0.10200
C1650       C  0.67270928  0.75023523  0.31988984    -0.11800
C1651       C  0.55392747  0.82814221  0.33741676    -0.10200
C1652       C  0.57679720  0.82692004  0.31924735    -0.11800
C1653       C  0.77373367  0.94563560  0.33852101    -0.10200
C1654       C  0.74966850  0.92281732  0.32021803    -0.11800
C1655       C  0.92242665  0.67266140  0.31912395    -0.10200
C1656       C  0.94520761  0.67129724  0.33744540    -0.11800
C1657       C  0.72560453  0.55422319  0.33643370    -0.10200
C1658       C  0.74975842  0.57708003  0.31826249    -0.11800
C1659       C  0.82693197  0.74993094  0.31865914    -0.10200
C1660       C  0.82821431  0.77398732  0.33694230    -0.11800
C1661       C  0.58079635  0.83254020  0.17667199    -0.10200
C1662       C  0.55721212  0.83213198  0.15827069    -0.11800
C1663       C  0.83171796  0.77513077  0.15776345    -0.10200
C1664       C  0.83212689  0.75189412  0.17604562    -0.11800
C1665       C  0.94360989  0.66930345  0.15817416    -0.10200
C1666       C  0.91990981  0.66867160  0.17643175    -0.11800
C1667       C  0.66864386  0.74890845  0.17731699    -0.10200
C1668       C  0.66924851  0.72582401  0.15904279    -0.11800
C1669       C  0.74882472  0.58097357  0.17544900    -0.10200
C1670       C  0.72584877  0.55743883  0.15692381    -0.11800
C1671       C  0.77507488  0.94403490  0.15950192    -0.10200
C1672       C  0.75186626  0.92032364  0.17769764    -0.11800
C1673       C  0.56889206  0.56920860  0.12407968    -0.10200
C1674       C  0.59776192  0.59806947  0.12425560    -0.11800
C1675       C  0.50037788  0.59801098  0.12465470    -0.10200
C1676       C  0.50036691  0.56914260  0.12465068    -0.11800
C1677       C  0.56894158  0.50074726  0.12311795    -0.10200
C1678       C  0.59781387  0.50075986  0.12279890    -0.11800
C1679       C  0.50050630  0.90339018  0.12365247    -0.10200
C1680       C  0.50048846  0.93224268  0.12362062    -0.11800
C1681       C  0.93195264  0.93217550  0.12431030    -0.10200
C1682       C  0.90307032  0.90332707  0.12427370    -0.11800
C1683       C  0.93190085  0.50061008  0.12506839    -0.10200
C1684       C  0.90302564  0.50058812  0.12536660    -0.11800
C1685       C  0.82710877  0.57724805  0.43011491    -0.10200
C1686       C  0.82841714  0.55447296  0.41186196    -0.11800
C1687       C  0.83227926  0.58102332  0.07295623    -0.10200
C1688       C  0.83176673  0.55745730  0.09143805    -0.11800
C1689       C  0.74994434  0.67274563  0.42961711    -0.10200
C1690       C  0.72575638  0.67133284  0.41132832    -0.11800
C1691       C  0.92263303  0.74999475  0.42944914    -0.10200
C1692       C  0.94533904  0.77399835  0.41103883    -0.11800
C1693       C  0.72586399  0.66936478  0.09072097    -0.10200
C1694       C  0.74887559  0.66873814  0.07236924    -0.11800
C1695       C  0.94361742  0.77518458  0.09039875    -0.10200
C1696       C  0.91995003  0.75195930  0.07215904    -0.11800
C1697       C  0.57710404  0.75001041  0.42893332    -0.10200
C1698       C  0.55428666  0.72586378  0.41070980    -0.11800
C1699       C  0.58047743  0.74892780  0.07162193    -0.10200
C1700       C  0.55685152  0.72587665  0.09001031    -0.11800
C1701       C  0.67128573  0.94515079  0.40959907    -0.10200
C1702       C  0.67264726  0.92241616  0.42796972    -0.11800
C1703       C  0.74980474  0.82684490  0.42889133    -0.10200
C1704       C  0.77383672  0.82809116  0.41060986    -0.11800
C1705       C  0.66919912  0.94421255  0.08870752    -0.10200
C1706       C  0.66862090  0.92045632  0.07055828    -0.11800
C1707       C  0.75180904  0.83248154  0.07154581    -0.10200
C1708       C  0.77502218  0.83210321  0.08991941    -0.11800
O1709       O  0.63593319  0.77350258  0.54087767    -0.78800
C1710       C  0.67167897  0.89648326  0.95303221     1.00600
O1711       O  0.64256392  0.87810775  0.97052471    -0.67900
O1712       O  0.60611374  0.80632199  0.95881245    -0.71500
Al1713     Al  0.62467758  0.83543345  0.49955809     1.49000
C1714       C  0.60324107  0.77510979  0.95375304     0.95800
O1715       O  0.69361782  0.79980777  0.95899170    -0.77700
O1716       O  0.72698608  0.86304380  0.54047835    -0.71300
Al1717     Al  0.66481408  0.78950395  0.99989879     1.90100
O1718       O  0.73553307  0.85738035  0.97084777    -0.70300
O1719       O  0.69604278  0.90329555  0.52787238    -0.70200
O1720       O  0.69998354  0.89352424  0.95822247    -0.75800
O1721       O  0.63770624  0.86461767  0.54036105    -0.74000
O1722       O  0.66672936  0.83347967  0.49952693    -1.10200
O1723       O  0.59727043  0.79331740  0.52862404    -0.69400
C1724       C  0.60608809  0.77344964  0.54626684     1.01300
C1725       C  0.72484743  0.82806153  0.95370427     0.97700
Al1726     Al  0.71071577  0.87554107  0.49935051     1.55600
O1727       O  0.62192230  0.76455263  0.97113751    -0.74000
C1728       C  0.66746784  0.89459229  0.54551147     1.01900
C1729       C  0.72710624  0.83331489  0.54617160     0.96800
O1730       O  0.70717405  0.80449103  0.52880240    -0.79300
O1731       O  0.86297907  0.63628793  0.54182189    -0.78800
C1732       C  0.77508229  0.67181982  0.95452759     1.00600
O1733       O  0.76452391  0.64266614  0.97198618    -0.67900
O1734       O  0.79987927  0.60626390  0.96008946    -0.71500
Al1735     Al  0.78949303  0.62483282  0.50089753     1.49000
C1736       C  0.82821179  0.60339636  0.95490993     0.95800
O1737       O  0.89371026  0.69380400  0.95968072    -0.77700
O1738       O  0.86434513  0.72709206  0.54148011    -0.71300
Al1739     Al  0.87556398  0.66506064  0.00073050     1.90100
O1740       O  0.87811987  0.73570972  0.97173438    -0.70300
O1741       O  0.79310610  0.69616740  0.52934388    -0.70200
O1742       O  0.80631742  0.70017331  0.95960377    -0.75800
O1743       O  0.77347275  0.63780330  0.54178649    -0.74000
O1744       O  0.83345671  0.66691211  0.00063142    -1.10200
O1745       O  0.80443914  0.59753962  0.52992502    -0.69400
C1746       C  0.83322346  0.60647228  0.54744862     1.01300
C1747       C  0.89663343  0.72503089  0.95442144     0.97700
Al1748     Al  0.83532633  0.71086867  0.00052537     1.55600
O1749       O  0.85752184  0.62211925  0.97214244    -0.74000
C1750       C  0.77334425  0.66757157  0.54705898     1.01900
C1751       C  0.89427895  0.72728672  0.54692124     0.96800
O1752       O  0.90312555  0.70745805  0.52940520    -0.79300
C1753       C  0.50045429  0.96693164  0.62378684     0.05300
C1754       C  0.96665925  0.96689694  0.62425273     0.05300
C1755       C  0.96663136  0.50065375  0.62459550     0.05300
C1756       C  0.50039450  0.53444712  0.62445604     0.05300
C1757       C  0.53419036  0.53448169  0.62401370     0.05300
C1758       C  0.53421805  0.50072205  0.62362824     0.05300
C1759       C  0.83395592  0.52866136  0.60977054     0.83200
N1760       N  0.80360554  0.50080303  0.62555396    -0.75100
C1761       C  0.80608964  0.97288771  0.64133456     0.85700
N1762       N  0.83868057  0.97293104  0.64133668    -0.75000
C1763       C  0.86877538  0.50068314  0.62551700     0.85800
N1764       N  0.86642507  0.52848072  0.60971383    -0.76700
C1765       C  0.66704800  0.97305970  0.60686182     0.83200
N1766       N  0.69741750  0.50089717  0.62271566    -0.75100
C1767       C  0.69490798  0.52871426  0.63852132     0.85700
N1768       N  0.66227203  0.52856250  0.63853012    -0.75000
C1769       C  0.63215839  0.50084755  0.62265871     0.85800
N1770       N  0.63451890  0.97314029  0.60681962    -0.76700
C1771       C  0.69489396  0.66716453  0.60897247     0.83200
N1772       N  0.66222147  0.63472217  0.60872961    -0.75100
C1773       C  0.63211304  0.63231849  0.62451006     0.85700
N1774       N  0.63452048  0.66232975  0.64051564    -0.75000
C1775       C  0.66707786  0.69489832  0.64071364     0.85800
N1776       N  0.69744342  0.69743815  0.62494773    -0.76700
C1777       C  0.97244242  0.66713979  0.64002037     0.83200
N1778       N  0.50023430  0.69745552  0.62409904    -0.75100
C1779       C  0.52809429  0.69494243  0.60838429     0.85700
N1780       N  0.52803905  0.66235639  0.60856251    -0.75000
C1781       C  0.50036488  0.63230043  0.62451153     0.85800
N1782       N  0.97262462  0.63467586  0.64024624    -0.76700
C1783       C  0.83392131  0.80622100  0.63964728     0.83200
N1784       N  0.86641938  0.83883848  0.63983145    -0.75100
C1785       C  0.86875888  0.86904143  0.62415825     0.85700
N1786       N  0.83863493  0.86676845  0.60832748    -0.75000
C1787       C  0.80602659  0.83425444  0.60821270     0.85800
N1788       N  0.80355460  0.80380962  0.62385521    -0.76700
C1789       C  0.97249799  0.80627070  0.60848117     0.83200
N1790       N  0.50041855  0.80384211  0.62433353    -0.75100
C1791       C  0.52838084  0.83428111  0.63994187     0.85700
N1792       N  0.52831101  0.86680300  0.63973793    -0.75000
C1793       C  0.50050105  0.86909503  0.62384781     0.85800
N1794       N  0.97264465  0.83889995  0.60820806    -0.76700
O1795       O  0.77330320  0.63623431  0.70649731    -0.78800
C1796       C  0.89640882  0.67171389  0.79415046     1.00600
O1797       O  0.87792007  0.64258949  0.77667254    -0.67900
O1798       O  0.80612590  0.60619158  0.78847405    -0.71500
Al1799     Al  0.83516848  0.62475016  0.74769965     1.49000
C1800       C  0.77488942  0.60328326  0.79352265     0.95800
O1801       O  0.79977610  0.69368279  0.78859257    -0.77700
O1802       O  0.86274060  0.72698929  0.70689985    -0.71300
Al1803     Al  0.78932998  0.66496618  0.74757799     1.90100
O1804       O  0.85730267  0.73561067  0.77657612    -0.70300
O1805       O  0.90300301  0.69606215  0.71934572    -0.70200
O1806       O  0.89348208  0.70003894  0.78902405    -0.75800
O1807       O  0.86424209  0.63774550  0.70685091    -0.74000
O1808       O  0.83328128  0.66681915  0.74783967    -1.10200
O1809       O  0.79298674  0.59744295  0.71864253    -0.69400
C1810       C  0.77323027  0.60640290  0.70098504     1.01300
C1811       C  0.82805299  0.72493188  0.79382075     0.97700
Al1812     Al  0.87536744  0.71076525  0.74797487     1.55600
O1813       O  0.76433645  0.62199171  0.77618701    -0.74000
C1814       C  0.89419203  0.66749848  0.70164137     1.01900
C1815       C  0.83302727  0.72720537  0.70135768     0.96800
O1816       O  0.80428939  0.70739111  0.71884218    -0.79300
O1817       O  0.70006762  0.80659679  0.78997536    -0.78800
C1818       C  0.60629264  0.83339298  0.70209156     1.00600
O1819       O  0.59736952  0.80457910  0.71953665    -0.67900
O1820       O  0.63771622  0.77366586  0.70766635    -0.71500
Al1821     Al  0.62468957  0.78962341  0.74855959     1.49000
C1822       C  0.66748795  0.77350128  0.70250449     0.95800
O1823       O  0.72689597  0.86457674  0.70812002    -0.77700
O1824       O  0.69341643  0.89368200  0.79005936    -0.71300
Al1825     Al  0.71072778  0.83556256  0.74906326     1.90100
O1826       O  0.70729917  0.90334366  0.72039601    -0.70300
O1827       O  0.62175071  0.85748548  0.77736028    -0.70200
O1828       O  0.63613073  0.86312595  0.70775263    -0.75800
O1829       O  0.60606703  0.79990993  0.78936773    -0.74000
O1830       O  0.66672741  0.83360240  0.74892469    -1.10200
O1831       O  0.64259361  0.76470665  0.77745762    -0.69400
C1832       C  0.67174457  0.77533337  0.79498652     1.01300
C1833       C  0.72713908  0.89455151  0.70282459     0.97700
Al1834     Al  0.66480025  0.87565022  0.74891537     1.55600
O1835       O  0.69608191  0.79331886  0.72024746    -0.74000
C1836       C  0.60306690  0.82815837  0.79454032     1.01900
C1837       C  0.72472301  0.89675396  0.79526586     0.96800
O1838       O  0.73551128  0.87837760  0.77787531    -0.79300
C1839       C  0.96580347  0.99991957  0.87423387     0.05300
C1840       C  0.96574239  0.96591135  0.87401094     0.05300
C1841       C  0.99970345  0.96586268  0.87379552     0.05300
C1842       C  0.53371390  0.99981327  0.87374681     0.05300
C1843       C  0.53377108  0.53381421  0.87396112     0.05300
C1844       C  0.99981549  0.53386293  0.87417600     0.05300
C1845       C  0.69461931  0.52644957  0.85565721     0.83200
N1846       N  0.69759752  0.99963839  0.87295465    -0.75100
C1847       C  0.66793705  0.97285544  0.89030590     0.85700
N1848       N  0.63533198  0.97294604  0.89042429    -0.75000
C1849       C  0.63228425  0.99969846  0.87308816     0.85800
N1850       N  0.66195257  0.52643061  0.85568493    -0.76700
C1851       C  0.80478647  0.97334359  0.85777389     0.83200
N1852       N  0.80188402  0.00004805  0.87519980    -0.75100
C1853       C  0.83166157  0.52679891  0.89252332     0.85700
N1854       N  0.86431714  0.52678659  0.89244814    -0.75000
C1855       C  0.86727229  0.00013003  0.87496956     0.85800
N1856       N  0.83748553  0.97344699  0.85761641    -0.76700
C1857       C  0.52654949  0.69484019  0.89148197     0.83200
N1858       N  0.52652783  0.66218495  0.89160085    -0.75100
C1859       C  0.99979803  0.63245355  0.87423328     0.85700
N1860       N  0.97303861  0.63542504  0.85679226    -0.75000
C1861       C  0.97295418  0.66802738  0.85676976     0.85800
N1862       N  0.99973883  0.69774954  0.87408811    -0.76700
C1863       C  0.66798746  0.69494419  0.85730368     0.83200
N1864       N  0.63539799  0.66223696  0.85705896    -0.75100
C1865       C  0.63240717  0.63244097  0.87435273     0.85700
N1866       N  0.66210893  0.63540437  0.89184383    -0.75000
C1867       C  0.69475130  0.66806332  0.89198705     0.85800
N1868       N  0.69767209  0.69783957  0.87474032    -0.76700
C1869       C  0.52624318  0.83146993  0.85663770     0.83200
N1870       N  0.52617631  0.86408261  0.85643629    -0.75100
C1871       C  0.99957343  0.86717936  0.87384200     0.85700
N1872       N  0.97298454  0.83756075  0.89142396    -0.75000
C1873       C  0.97293254  0.80488803  0.89154854     0.85800
N1874       N  0.99959431  0.80185623  0.87417878    -0.76700
C1875       C  0.83150236  0.80491337  0.85631790     0.83200
N1876       N  0.80183553  0.80185014  0.87377341    -0.75100
C1877       C  0.80480061  0.83146179  0.89126048     0.85700
N1878       N  0.83745633  0.86410280  0.89133114    -0.75000
C1879       C  0.86713089  0.86723973  0.87384071     0.85800
N1880       N  0.86410223  0.83761955  0.85631422    -0.76700
C1881       C  0.99984820  0.59788622  0.87428405    -0.10200
C1882       C  0.99986377  0.56885477  0.87427574    -0.11800
C1883       C  0.56878024  0.56876587  0.87403089    -0.10200
C1884       C  0.59782857  0.59780967  0.87415862    -0.11800
C1885       C  0.90171040  0.90187969  0.87389533    -0.10200
C1886       C  0.93073647  0.93095292  0.87396317    -0.11800
C1887       C  0.93086802  0.00000871  0.87455302    -0.10200
C1888       C  0.90188111  0.00013159  0.87480164    -0.11800
C1889       C  0.56866907  0.99976958  0.87346250    -0.10200
C1890       C  0.59770871  0.99975612  0.87324463    -0.11800
C1891       C  0.99965234  0.93086297  0.87370632    -0.10200
C1892       C  0.99960755  0.90179717  0.87372615    -0.11800
C1893       C  0.67129945  0.72603093  0.83812101    -0.10200
C1894       C  0.67270922  0.75023516  0.81988985    -0.11800
C1895       C  0.55392729  0.82814212  0.83741681    -0.10200
C1896       C  0.57679742  0.82692018  0.81924721    -0.11800
C1897       C  0.77373374  0.94563573  0.83852105    -0.10200
C1898       C  0.74966839  0.92281719  0.82021808    -0.11800
C1899       C  0.92242669  0.67266140  0.81912399    -0.10200
C1900       C  0.94520765  0.67129731  0.83744545    -0.11800
C1901       C  0.72560463  0.55422324  0.83643358    -0.10200
C1902       C  0.74975829  0.57707994  0.81826250    -0.11800
C1903       C  0.82693195  0.74993090  0.81865908    -0.10200
C1904       C  0.82821423  0.77398742  0.83694244    -0.11800
C1905       C  0.58079639  0.83254030  0.67667193    -0.10200
C1906       C  0.55721211  0.83213197  0.65827055    -0.11800
C1907       C  0.83171794  0.77513067  0.65776340    -0.10200
C1908       C  0.83212695  0.75189411  0.67604555    -0.11800
C1909       C  0.94361027  0.66930356  0.65817397    -0.10200
C1910       C  0.91990946  0.66867158  0.67643203    -0.11800
C1911       C  0.66864382  0.74890840  0.67731685    -0.10200
C1912       C  0.66924845  0.72582418  0.65904290    -0.11800
C1913       C  0.74882481  0.58097369  0.67544902    -0.10200
C1914       C  0.72584881  0.55743885  0.65692383    -0.11800
C1915       C  0.77507511  0.94403514  0.65950176    -0.10200
C1916       C  0.75186614  0.92032354  0.67769779    -0.11800
C1917       C  0.56889198  0.56920853  0.62407966    -0.10200
C1918       C  0.59776205  0.59806965  0.62425576    -0.11800
C1919       C  0.50037784  0.59801119  0.62465467    -0.10200
C1920       C  0.50036706  0.56914254  0.62465067    -0.11800
C1921       C  0.56894143  0.50074722  0.62311794    -0.10200
C1922       C  0.59781396  0.50075986  0.62279897    -0.11800
C1923       C  0.50050631  0.90339012  0.62365255    -0.10200
C1924       C  0.50048844  0.93224279  0.62362061    -0.11800
C1925       C  0.93195289  0.93217569  0.62431031    -0.10200
C1926       C  0.90307001  0.90332676  0.62427372    -0.11800
C1927       C  0.93190106  0.50061013  0.62506850    -0.10200
C1928       C  0.90302533  0.50058809  0.62536660    -0.11800
C1929       C  0.82710879  0.57724811  0.93011496    -0.10200
C1930       C  0.82841712  0.55447294  0.91186192    -0.11800
C1931       C  0.83227924  0.58102330  0.57295623    -0.10200
C1932       C  0.83176666  0.55745730  0.59143792    -0.11800
C1933       C  0.74994428  0.67274563  0.92961701    -0.10200
C1934       C  0.72575633  0.67133277  0.91132826    -0.11800
C1935       C  0.92263310  0.74999485  0.92944921    -0.10200
C1936       C  0.94533906  0.77399829  0.91103888    -0.11800
C1937       C  0.72586376  0.66936483  0.59072121    -0.10200
C1938       C  0.74887577  0.66873811  0.57236898    -0.11800
C1939       C  0.94361726  0.77518445  0.59039862    -0.10200
C1940       C  0.91995013  0.75195942  0.57215910    -0.11800
C1941       C  0.57710414  0.75001047  0.92893333    -0.10200
C1942       C  0.55428664  0.72586381  0.91070986    -0.11800
C1943       C  0.58047713  0.74892761  0.57162210    -0.10200
C1944       C  0.55685184  0.72587711  0.59001006    -0.11800
C1945       C  0.67128562  0.94515074  0.90959905    -0.10200
C1946       C  0.67264717  0.92241612  0.92796970    -0.11800
C1947       C  0.74980498  0.82684491  0.92889116    -0.10200
C1948       C  0.77383636  0.82809120  0.91061013    -0.11800
C1949       C  0.66919905  0.94421262  0.58870759    -0.10200
C1950       C  0.66862093  0.92045628  0.57055819    -0.11800
C1951       C  0.75180891  0.83248157  0.57154570    -0.10200
C1952       C  0.77502237  0.83210326  0.58991956    -0.11800
loop_ 
_geom_bond_atom_site_label_1 
_geom_bond_atom_site_label_2 
_geom_bond_distance 
_geom_bond_site_symmetry_2 
_ccdc_geom_bond_type 
O1           C16   1.259       .  A
O1         Al253   1.899   1_554  S
C2           O12   1.259       .  A
C2            O3   1.260       .  A
C2          C238   1.435       .  S
O3         Al249   1.909       .  S
O4            C6   1.259       .  A
O4         Al249   1.902       .  S
Al5          O13   1.899   1_556  S
Al5          O15   1.907   1_556  S
Al5         O247   1.909       .  S
Al5         O248   1.902       .  S
Al5          O14   1.792       .  S
C6           O19   1.259       .  A
C6          C233   1.435       .  S
O7           C17   1.259       .  A
O7           Al9   1.903       .  S
O8           C21   1.259       .  A
O8          Al18   1.898   1_554  S
Al9          O19   1.908       .  S
Al9         O245   1.899       .  S
Al9         O266   1.907       .  S
Al9         O258   1.792       .  S
O10          C17   1.259       .  A
O10        Al262   1.909       .  S
O11          C20   1.258       .  A
O11         Al18   1.908   1_554  S
O12        Al262   1.902       .  S
O13          C20   1.259       .  A
O14         Al18   1.792       .  S
O14        Al253   1.792       .  S
O15          C16   1.258       .  A
C16         C235   1.433       .  S
C17         C239   1.436       .  S
Al18        O254   1.909       .  S
Al18        O256   1.902       .  S
C20         C242   1.433       .  S
C21          O22   1.259       .  A
C21         C243   1.432       .  S
O22        Al253   1.907   1_554  S
O23          C38   1.259       .  A
O23        Al275   1.899       .  S
C24          O34   1.259       .  A
C24          O25   1.259       .  A
C24         C225   1.435       .  S
O25        Al271   1.908       .  S
O26          C28   1.259       .  A
O26        Al271   1.903       .  S
Al27         O35   1.900       .  S
Al27         O37   1.906       .  S
Al27        O269   1.908   1_554  S
Al27        O270   1.903   1_554  S
Al27        O280   1.791       .  S
C28          O41   1.259       .  A
C28         C221   1.436       .  S
O29          C39   1.259       .  A
O29         Al31   1.902       .  S
O30          C43   1.258       .  A
O30        Al284   1.898       .  S
Al31         O41   1.909       .  S
Al31        O267   1.899       .  S
Al31        O288   1.907       .  S
Al31         O36   1.792       .  S
O32          C39   1.260       .  A
O32         Al40   1.909       .  S
O33          C42   1.258       .  A
O33        Al284   1.907       .  S
O34         Al40   1.902       .  S
O35          C42   1.259       .  A
O36         Al40   1.792       .  S
O36        Al271   1.791       .  S
O37          C38   1.258       .  A
C38         C223   1.432       .  S
C39         C227   1.436       .  S
Al40        O274   1.898       .  S
Al40        O277   1.907       .  S
C42         C230   1.433       .  S
C43          O44   1.258       .  A
C43         C232   1.432       .  S
O44        Al275   1.907       .  S
C45         C216   1.444       .  S
C45        C1022   1.405   1_455  A
C45         C538   1.406       .  A
C46         C217   1.444       .  S
C46        C1021   1.405       .  A
C46         C535   1.405       .  A
C47         C219   1.444       .  S
C47         C534   1.405   1_545  A
C47        C1024   1.406       .  A
C48         C212   1.444       .  S
C48          C49   1.405       .  A
C48        C1023   1.406   1_455  A
C49         C209   1.445       .  S
C49          C50   1.406       .  A
C50         C213   1.444       .  S
C50         C533   1.406   1_545  A
C51         C224   1.432       .  S
C51          N52   1.360       .  A
C51          N56   1.355       .  A
N52         C541   1.360   1_545  A
C53         C207   1.433       .  S
C53          N54   1.355       .  A
C53         N540   1.360       .  A
N54         C543   1.353       .  A
C55         C220   1.427       .  S
C55          N56   1.353       .  A
C55         N542   1.353   1_545  A
C57         C241   1.433       .  S
C57          N62   1.355       .  A
C57         N546   1.360       .  A
N58          C59   1.360       .  A
N58         C545   1.360   1_545  A
C59         C206   1.433       .  S
C59          N60   1.355       .  A
N60          C61   1.353       .  A
C61         C214   1.427       .  S
C61         N550   1.353   1_545  A
N62         C549   1.353       .  A
C63         C229   1.433       .  S
C63          N64   1.355       .  A
C63          N68   1.360       .  A
N64          C65   1.353       .  A
C65         C210   1.427       .  S
C65          N66   1.353       .  A
N66          C67   1.355       .  A
C67         C204   1.434       .  S
C67          N68   1.360       .  A
C69         C201   1.433       .  S
C69          N74   1.355       .  A
C69        N1046   1.360       .  A
N70          C71   1.360       .  A
N70        C1045   1.360   1_455  A
C71         C236   1.433       .  S
C71          N72   1.355       .  A
N72          C73   1.353       .  A
C73         C211   1.427       .  S
C73        N1050   1.353   1_455  A
N74        C1049   1.353       .  A
C75         C199   1.432       .  S
C75          N76   1.355       .  A
C75          N80   1.360       .  A
N76          C77   1.353       .  A
C77         C218   1.427       .  S
C77          N78   1.353       .  A
N78          C79   1.355       .  A
C79         C244   1.433       .  S
C79          N80   1.360       .  A
C81         C231   1.432       .  S
C81          N86   1.355       .  A
C81        N1058   1.360       .  A
N82          C83   1.360       .  A
N82        C1057   1.360   1_455  A
C83         C198   1.432       .  S
C83          N84   1.355       .  A
N84          C85   1.353       .  A
C85         C215   1.427       .  S
C85        N1062   1.353   1_455  A
N86        C1061   1.353       .  A
O87         C102   1.259       .  A
O87         Al95   1.899       .  S
C88          O98   1.259       .  A
C88          O89   1.260       .  A
C88         C191   1.435       .  S
O89         Al91   1.909       .  S
O90          C92   1.259       .  A
O90         Al91   1.902       .  S
Al91         O99   1.899       .  S
Al91        O101   1.907       .  S
Al91        O100   1.791       .  S
C92         O105   1.259       .  A
C92         C194   1.435       .  S
O93         C103   1.259       .  A
O93         Al95   1.903       .  S
O94         C107   1.258       .  A
O94        Al104   1.898       .  S
Al95        O108   1.907       .  S
Al95        O105   1.909       .  S
Al95        O100   1.791       .  S
O96         C103   1.260       .  A
O96        Al104   1.910       .  S
O97         C106   1.258       .  A
O97        Al104   1.907       .  S
O98        Al104   1.901       .  S
O99         C106   1.259       .  A
O100       Al104   1.791       .  S
O101        C102   1.258       .  A
C102        C205   1.432       .  S
C103        C195   1.436       .  S
C106        C202   1.433       .  S
C107        O108   1.258       .  A
C107        C200   1.432       .  S
O109        C124   1.259       .  A
O109       Al117   1.902       .  S
C110        O120   1.258       .  A
C110        O111   1.258       .  A
C110        C197   1.432       .  S
O111       Al113   1.907       .  S
O112        C114   1.259       .  A
O112       Al113   1.900       .  S
Al113       O121   1.902       .  S
Al113       O123   1.908       .  S
Al113       O122   1.791       .  S
C114        O127   1.258       .  A
C114        C203   1.433       .  S
O115        C125   1.259       .  A
O115       Al117   1.899       .  S
O116        C129   1.259       .  A
O116       Al126   1.902       .  S
Al117       O130   1.909       .  S
Al117       O127   1.908       .  S
Al117       O122   1.791       .  S
O118        C125   1.259       .  A
O118       Al126   1.908       .  S
O119        C128   1.259       .  A
O119       Al126   1.909       .  S
O120       Al126   1.898       .  S
O121        C128   1.259       .  A
O122       Al126   1.791       .  S
O123        C124   1.260       .  A
C124        C186   1.435       .  S
C125        C208   1.432       .  S
C128        C188   1.436       .  S
C129        O130   1.260       .  A
C129        C190   1.435       .  S
C131        C179   1.455       .  S
C131        C132   1.414       .  A
C131        C624   1.414       .  A
C132        C178   1.456       .  S
C132        C133   1.414       .  A
C133        C183   1.455       .  S
C133       C1110   1.414       .  A
C134        C181   1.455       .  S
C134       C1109   1.414   1_455  A
C134        C623   1.414       .  A
C135        C175   1.456       .  S
C135        C622   1.414   1_545  A
C135       C1112   1.414   1_455  A
C136        C174   1.455       .  S
C136        C619   1.414   1_545  A
C136       C1111   1.414       .  A
C137        C193   1.436       .  S
C137        N142   1.359       .  A
C137        N626   1.357   1_545  A
N138        C139   1.357       .  A
N138        C625   1.357       .  A
C139        C237   1.436       .  S
C139        N140   1.358       .  A
N140        C141   1.357       .  A
C141        C182   1.440       .  S
C141        N630   1.358       .  A
N142        C629   1.358   1_545  A
C143        C189   1.436       .  S
C143        N144   1.357       .  A
C143        N148   1.358       .  A
N144        C633   1.358       .  A
C145        C222   1.437       .  S
C145        N146   1.359       .  A
C145        N632   1.358       .  A
N146        C635   1.358       .  A
C147        C180   1.440       .  S
C147        N148   1.357       .  A
C147        N634   1.358       .  A
C149        C234   1.436       .  S
C149        N150   1.358       .  A
C149       N1130   1.357   1_455  A
N150       C1127   1.357   1_455  A
C151        C173   1.440       .  S
C151        N152   1.357       .  A
C151       N1126   1.357       .  A
N152        C153   1.358       .  A
C153        C192   1.436       .  S
C153        N154   1.357       .  A
N154       C1125   1.357       .  A
C155        C185   1.436       .  S
C155        N156   1.359       .  A
C155        N160   1.357       .  A
N156        C157   1.358       .  A
C157        C176   1.440       .  S
C157        N158   1.358       .  A
N158        C159   1.359       .  A
C159        C226   1.436       .  S
C159        N160   1.357       .  A
C161        C187   1.437       .  S
C161        N162   1.359       .  A
C161       N1142   1.358   1_455  A
N162       C1139   1.358   1_455  A
C163        C184   1.440       .  S
C163        N164   1.358       .  A
C163       N1138   1.358       .  A
N164        C165   1.359       .  A
C165        C228   1.437       .  S
C165        N166   1.358       .  A
N166       C1137   1.358       .  A
C167        C196   1.437       .  S
C167        N168   1.358       .  A
C167        N172   1.359       .  A
N168        C169   1.358       .  A
C169        C240   1.437       .  S
C169        N170   1.359       .  A
N170        C171   1.357       .  A
C171        C177   1.440       .  S
C171        N172   1.358       .  A
C173        C174   1.208       .  T
C175        C176   1.209       .  T
C177        C178   1.209       .  T
C179        C180   1.209       .  T
C181        C182   1.209       .  T
C183        C184   1.209       .  T
C185        C186   1.206       .  T
C187        C188   1.206       .  T
C189        C190   1.206       .  T
C191        C192   1.206       .  T
C193        C194   1.206       .  T
C195        C196   1.206       .  T
C197        C198   1.204       .  T
C199        C200   1.204       .  T
C201        C202   1.204       .  T
C203        C204   1.205       .  T
C205        C206   1.204       .  T
C207        C208   1.204       .  T
C209        C210   1.201       .  T
C211        C212   1.201       .  T
C213        C214   1.201       .  T
C215        C216   1.201       .  T
C217        C218   1.201       .  T
C219        C220   1.201       .  T
C221        C222   1.206       .  T
C223        C224   1.204       .  T
C225        C226   1.206       .  T
C227        C228   1.206       .  T
C229        C230   1.204       .  T
C231        C232   1.204       .  T
C233        C234   1.206       .  T
C235        C236   1.204       .  T
C237        C238   1.206       .  T
C239        C240   1.206       .  T
C241        C242   1.204       .  T
C243        C244   1.204       .  T
O245        C260   1.259       .  A
C246        O256   1.259       .  A
C246        O247   1.260       .  A
C246        C482   1.435       .  S
O248        C250   1.259       .  A
Al249       O257   1.899       .  S
Al249       O259   1.907       .  S
Al249       O258   1.792       .  S
C250        O263   1.259       .  A
C250        C477   1.435       .  S
O251        C261   1.259       .  A
O251       Al253   1.903       .  S
O252        C265   1.259       .  A
O252       Al262   1.898       .  S
Al253       O263   1.908       .  S
O254        C261   1.259       .  A
O255        C264   1.258       .  A
O255       Al262   1.908       .  S
O257        C264   1.259       .  A
O258       Al262   1.792       .  S
O259        C260   1.258       .  A
C260        C479   1.433       .  S
C261        C483   1.436       .  S
C264        C486   1.433       .  S
C265        O266   1.259       .  A
C265        C487   1.432       .  S
O267        C282   1.259       .  A
C268        O278   1.259       .  A
C268        O269   1.259       .  A
C268        C469   1.435       .  S
O270        C272   1.259       .  A
Al271       O279   1.900       .  S
Al271       O281   1.906       .  S
C272        O285   1.259       .  A
C272        C465   1.436       .  S
O273        C283   1.259       .  A
O273       Al275   1.902   1_556  S
O274        C287   1.258       .  A
Al275       O285   1.909   1_554  S
Al275       O280   1.792       .  S
O276        C283   1.260       .  A
O276       Al284   1.909   1_556  S
O277        C286   1.258       .  A
O278       Al284   1.902   1_556  S
O279        C286   1.259       .  A
O280       Al284   1.792       .  S
O281        C282   1.258       .  A
C282        C467   1.432       .  S
C283        C471   1.436       .  S
C286        C474   1.433       .  S
C287        O288   1.258       .  A
C287        C476   1.432       .  S
C289        C460   1.444       .  S
C289       C1266   1.405   1_455  A
C289        C782   1.406       .  A
C290        C461   1.444       .  S
C290       C1265   1.405       .  A
C290        C779   1.405       .  A
C291        C463   1.444       .  S
C291        C778   1.405   1_545  A
C291       C1268   1.406       .  A
C292        C456   1.444       .  S
C292       C1267   1.406   1_455  A
C292        C293   1.405       .  A
C293        C453   1.445       .  S
C293        C294   1.406       .  A
C294        C457   1.444       .  S
C294        C777   1.406   1_545  A
C295        C468   1.432       .  S
C295        N296   1.360       .  A
C295        N300   1.355       .  A
N296        C785   1.360   1_545  A
C297        C451   1.433       .  S
C297        N784   1.360       .  A
C297        N298   1.355       .  A
N298        C787   1.353       .  A
C299        C464   1.427       .  S
C299        N786   1.353   1_545  A
C299        N300   1.353       .  A
C301        C485   1.433       .  S
C301        N790   1.360       .  A
C301        N306   1.355       .  A
N302        C789   1.360   1_545  A
N302        C303   1.360       .  A
C303        C450   1.433       .  S
C303        N304   1.355       .  A
N304        C305   1.353       .  A
C305        C458   1.427       .  S
C305        N794   1.353   1_545  A
N306        C793   1.353       .  A
C307        C473   1.433       .  S
C307        N308   1.355       .  A
C307        N312   1.360       .  A
N308        C309   1.353       .  A
C309        C454   1.427       .  S
C309        N310   1.353       .  A
N310        C311   1.355       .  A
C311        C448   1.434       .  S
C311        N312   1.360       .  A
C313        C445   1.433       .  S
C313       N1290   1.360       .  A
C313        N318   1.355       .  A
N314       C1289   1.360   1_455  A
N314        C315   1.360       .  A
C315        C480   1.433       .  S
C315        N316   1.355       .  A
N316        C317   1.353       .  A
C317        C455   1.427       .  S
C317       N1294   1.353   1_455  A
N318       C1293   1.353       .  A
C319        C443   1.432       .  S
C319        N320   1.355       .  A
C319        N324   1.360       .  A
N320        C321   1.353       .  A
C321        C462   1.427       .  S
C321        N322   1.353       .  A
N322        C323   1.355       .  A
C323        C488   1.432       .  S
C323        N324   1.360       .  A
C325        C475   1.432       .  S
C325       N1302   1.360       .  A
C325        N330   1.355       .  A
N326       C1301   1.360   1_455  A
N326        C327   1.360       .  A
C327        C442   1.432       .  S
C327        N328   1.355       .  A
N328        C329   1.353       .  A
C329        C459   1.427       .  S
C329       N1306   1.353   1_455  A
N330       C1305   1.353       .  A
O331        C346   1.259       .  A
O331       Al339   1.899       .  S
C332        O342   1.259       .  A
C332        O333   1.260       .  A
C332        C435   1.435       .  S
O333       Al335   1.909       .  S
O334        C336   1.259       .  A
O334       Al335   1.902       .  S
Al335       O343   1.899       .  S
Al335       O345   1.907       .  S
Al335       O344   1.791       .  S
C336        O349   1.259       .  A
C336        C438   1.435       .  S
O337        C347   1.259       .  A
O337       Al339   1.903       .  S
O338        C351   1.258       .  A
O338       Al348   1.898       .  S
Al339       O352   1.907       .  S
Al339       O349   1.909       .  S
Al339       O344   1.791       .  S
O340        C347   1.260       .  A
O340       Al348   1.910       .  S
O341        C350   1.258       .  A
O341       Al348   1.907       .  S
O342       Al348   1.901       .  S
O343        C350   1.259       .  A
O344       Al348   1.791       .  S
O345        C346   1.258       .  A
C346        C449   1.432       .  S
C347        C439   1.436       .  S
C350        C446   1.433       .  S
C351        O352   1.258       .  A
C351        C444   1.432       .  S
O353        C368   1.259       .  A
O353       Al361   1.902       .  S
C354        O364   1.258       .  A
C354        O355   1.258       .  A
C354        C441   1.432       .  S
O355       Al357   1.907       .  S
O356        C358   1.259       .  A
O356       Al357   1.900       .  S
Al357       O365   1.902       .  S
Al357       O367   1.908       .  S
Al357       O366   1.791       .  S
C358        O371   1.258       .  A
C358        C447   1.433       .  S
O359        C369   1.259       .  A
O359       Al361   1.899       .  S
O360        C373   1.259       .  A
O360       Al370   1.902       .  S
Al361       O374   1.909       .  S
Al361       O371   1.908       .  S
Al361       O366   1.791       .  S
O362        C369   1.259       .  A
O362       Al370   1.908       .  S
O363        C372   1.259       .  A
O363       Al370   1.909       .  S
O364       Al370   1.898       .  S
O365        C372   1.259       .  A
O366       Al370   1.791       .  S
O367        C368   1.260       .  A
C368        C430   1.435       .  S
C369        C452   1.432       .  S
C372        C432   1.436       .  S
C373        O374   1.260       .  A
C373        C434   1.435       .  S
C375        C423   1.455       .  S
C375        C376   1.414       .  A
C375        C868   1.414       .  A
C376        C422   1.456       .  S
C376        C377   1.414       .  A
C377        C427   1.455       .  S
C377       C1354   1.414       .  A
C378        C425   1.455       .  S
C378       C1353   1.414   1_455  A
C378        C867   1.414       .  A
C379        C419   1.456       .  S
C379        C866   1.414   1_545  A
C379       C1356   1.414   1_455  A
C380        C418   1.455       .  S
C380        C863   1.414   1_545  A
C380       C1355   1.414       .  A
C381        C437   1.436       .  S
C381        N870   1.357   1_545  A
C381        N386   1.359       .  A
N382        C869   1.357       .  A
N382        C383   1.357       .  A
C383        C481   1.436       .  S
C383        N384   1.358       .  A
N384        C385   1.357       .  A
C385        C426   1.440       .  S
C385        N874   1.358       .  A
N386        C873   1.358   1_545  A
C387        C433   1.436       .  S
C387        N388   1.357       .  A
C387        N392   1.358       .  A
N388        C877   1.358       .  A
C389        C466   1.437       .  S
C389        N876   1.358       .  A
C389        N390   1.359       .  A
N390        C879   1.358       .  A
C391        C424   1.440       .  S
C391        N878   1.358       .  A
C391        N392   1.357       .  A
C393        C478   1.436       .  S
C393        N394   1.358       .  A
C393       N1374   1.357   1_455  A
N394       C1371   1.357   1_455  A
C395        C417   1.440       .  S
C395       N1370   1.357       .  A
C395        N396   1.357       .  A
N396        C397   1.359       .  A
C397        C436   1.436       .  S
C397        N398   1.357       .  A
N398       C1369   1.357       .  A
C399        C429   1.436       .  S
C399        N400   1.359       .  A
C399        N404   1.357       .  A
N400        C401   1.358       .  A
C401        C420   1.440       .  S
C401        N402   1.358       .  A
N402        C403   1.359       .  A
C403        C470   1.436       .  S
C403        N404   1.357       .  A
C405        C431   1.437       .  S
C405        N406   1.359       .  A
C405       N1386   1.358   1_455  A
N406       C1383   1.358   1_455  A
C407        C428   1.440       .  S
C407       N1382   1.357       .  A
C407        N408   1.358       .  A
N408        C409   1.359       .  A
C409        C472   1.437       .  S
C409        N410   1.358       .  A
N410       C1381   1.358       .  A
C411        C440   1.437       .  S
C411        N412   1.358       .  A
C411        N416   1.359       .  A
N412        C413   1.358       .  A
C413        C484   1.437       .  S
C413        N414   1.359       .  A
N414        C415   1.358       .  A
C415        C421   1.440       .  S
C415        N416   1.358       .  A
C417        C418   1.208       .  T
C419        C420   1.209       .  T
C421        C422   1.209       .  T
C423        C424   1.209       .  T
C425        C426   1.209       .  T
C427        C428   1.209       .  T
C429        C430   1.206       .  T
C431        C432   1.206       .  T
C433        C434   1.206       .  T
C435        C436   1.206       .  T
C437        C438   1.206       .  T
C439        C440   1.206       .  T
C441        C442   1.204       .  T
C443        C444   1.204       .  T
C445        C446   1.204       .  T
C447        C448   1.205       .  T
C449        C450   1.204       .  T
C451        C452   1.204       .  T
C453        C454   1.201       .  T
C455        C456   1.201       .  T
C457        C458   1.201       .  T
C459        C460   1.201       .  T
C461        C462   1.201       .  T
C463        C464   1.201       .  T
C465        C466   1.206       .  T
C467        C468   1.204       .  T
C469        C470   1.206       .  T
C471        C472   1.206       .  T
C473        C474   1.204       .  T
C475        C476   1.204       .  T
C477        C478   1.206       .  T
C479        C480   1.204       .  T
C481        C482   1.206       .  T
C483        C484   1.206       .  T
C485        C486   1.204       .  T
C487        C488   1.204       .  T
O489        C504   1.259       .  A
O489       Al741   1.899   1_554  S
C490        O500   1.259       .  A
C490        O491   1.260       .  A
C490        C726   1.435       .  S
O491       Al737   1.909       .  S
O492        C494   1.259       .  A
O492       Al737   1.902       .  S
Al493       O735   1.909       .  S
Al493       O736   1.902       .  S
Al493       O501   1.899   1_556  S
Al493       O503   1.907   1_556  S
Al493       O502   1.792       .  S
C494        O507   1.259       .  A
C494        C721   1.435       .  S
O495        C505   1.259       .  A
O495       Al497   1.903       .  S
O496        C509   1.259       .  A
O496       Al506   1.898   1_554  S
Al497       O733   1.899       .  S
Al497       O754   1.907       .  S
Al497       O507   1.908       .  S
Al497       O746   1.792       .  S
O498        C505   1.259       .  A
O498       Al750   1.909       .  S
O499        C508   1.258       .  A
O499       Al506   1.908   1_554  S
O500       Al750   1.902       .  S
O501        C508   1.259       .  A
O502       Al741   1.792       .  S
O502       Al506   1.792       .  S
O503        C504   1.258       .  A
C504        C723   1.433       .  S
C505        C727   1.436       .  S
Al506       O742   1.909       .  S
Al506       O744   1.902       .  S
C508        C730   1.433       .  S
C509        O510   1.259       .  A
C509        C731   1.432       .  S
O510       Al741   1.907   1_554  S
O511        C526   1.259       .  A
O511       Al763   1.899       .  S
C512        O522   1.259       .  A
C512        O513   1.259       .  A
C512        C713   1.435       .  S
O513       Al759   1.908       .  S
O514        C516   1.259       .  A
O514       Al759   1.903       .  S
Al515       O757   1.908   1_554  S
Al515       O758   1.903   1_554  S
Al515       O523   1.900       .  S
Al515       O525   1.906       .  S
Al515       O768   1.791       .  S
C516        O529   1.259       .  A
C516        C709   1.436       .  S
O517        C527   1.259       .  A
O517       Al519   1.902       .  S
O518        C531   1.258       .  A
O518       Al772   1.898       .  S
Al519       O755   1.899       .  S
Al519       O776   1.907       .  S
Al519       O529   1.909       .  S
Al519       O524   1.792       .  S
O520        C527   1.260       .  A
O520       Al528   1.909       .  S
O521        C530   1.258       .  A
O521       Al772   1.907       .  S
O522       Al528   1.902       .  S
O523        C530   1.259       .  A
O524       Al759   1.791       .  S
O524       Al528   1.792       .  S
O525        C526   1.258       .  A
C526        C711   1.432       .  S
C527        C715   1.436       .  S
Al528       O762   1.898       .  S
Al528       O765   1.907       .  S
C530        C718   1.433       .  S
C531        O532   1.258       .  A
C531        C720   1.432       .  S
O532       Al763   1.907       .  S
C533        C704   1.444       .  S
C533       C1510   1.405   1_455  A
C534        C705   1.444       .  S
C534       C1509   1.405       .  A
C535        C707   1.444       .  S
C535       C1512   1.406       .  A
C536        C700   1.444       .  S
C536       C1511   1.406   1_455  A
C536        C537   1.405       .  A
C537        C697   1.445       .  S
C537        C538   1.406       .  A
C538        C701   1.444       .  S
C539        C712   1.433       .  S
C539        N540   1.360       .  A
C539        N544   1.355       .  A
C541        C695   1.433       .  S
C541        N542   1.355       .  A
C543        C708   1.427       .  S
C543        N544   1.353       .  A
C545        C729   1.433       .  S
C545        N550   1.355       .  A
N546        C547   1.360       .  A
C547        C694   1.433       .  S
C547        N548   1.355       .  A
N548        C549   1.353       .  A
C549        C702   1.427       .  S
C551        C717   1.433       .  S
C551        N552   1.355       .  A
C551        N556   1.360       .  A
N552        C553   1.353       .  A
C553        C698   1.427       .  S
C553        N554   1.353       .  A
N554        C555   1.355       .  A
C555        C692   1.434       .  S
C555        N556   1.360       .  A
C557        C689   1.433       .  S
C557       N1534   1.360       .  A
C557        N562   1.355       .  A
N558       C1533   1.360   1_455  A
N558        C559   1.360       .  A
C559        C724   1.433       .  S
C559        N560   1.355       .  A
N560        C561   1.353       .  A
C561        C699   1.427       .  S
C561       N1538   1.353   1_455  A
N562       C1537   1.353       .  A
C563        C687   1.432       .  S
C563        N564   1.355       .  A
C563        N568   1.360       .  A
N564        C565   1.353       .  A
C565        C706   1.427       .  S
C565        N566   1.353       .  A
N566        C567   1.355       .  A
C567        C732   1.432       .  S
C567        N568   1.360       .  A
C569        C719   1.432       .  S
C569       N1546   1.360       .  A
C569        N574   1.355       .  A
N570       C1545   1.360   1_455  A
N570        C571   1.360       .  A
C571        C686   1.432       .  S
C571        N572   1.355       .  A
N572        C573   1.353       .  A
C573        C703   1.427       .  S
C573       N1550   1.353   1_455  A
N574       C1549   1.353       .  A
O575        C590   1.259       .  A
O575       Al583   1.899       .  S
C576        O586   1.259       .  A
C576        O577   1.260       .  A
C576        C679   1.435       .  S
O577       Al579   1.909       .  S
O578        C580   1.259       .  A
O578       Al579   1.902       .  S
Al579       O587   1.899       .  S
Al579       O589   1.907       .  S
Al579       O588   1.791       .  S
C580        O593   1.259       .  A
C580        C682   1.435       .  S
O581        C591   1.259       .  A
O581       Al583   1.903       .  S
O582        C595   1.258       .  A
O582       Al592   1.898       .  S
Al583       O596   1.907       .  S
Al583       O593   1.909       .  S
Al583       O588   1.791       .  S
O584        C591   1.260       .  A
O584       Al592   1.910       .  S
O585        C594   1.258       .  A
O585       Al592   1.907       .  S
O586       Al592   1.901       .  S
O587        C594   1.259       .  A
O588       Al592   1.791       .  S
O589        C590   1.258       .  A
C590        C693   1.432       .  S
C591        C683   1.436       .  S
C594        C690   1.433       .  S
C595        O596   1.258       .  A
C595        C688   1.432       .  S
O597        C612   1.259       .  A
O597       Al605   1.902       .  S
C598        O608   1.258       .  A
C598        O599   1.258       .  A
C598        C685   1.432       .  S
O599       Al601   1.907       .  S
O600        C602   1.259       .  A
O600       Al601   1.900       .  S
Al601       O609   1.902       .  S
Al601       O611   1.908       .  S
Al601       O610   1.791       .  S
C602        O615   1.258       .  A
C602        C691   1.433       .  S
O603        C613   1.259       .  A
O603       Al605   1.899       .  S
O604        C617   1.259       .  A
O604       Al614   1.902       .  S
Al605       O618   1.909       .  S
Al605       O615   1.908       .  S
Al605       O610   1.791       .  S
O606        C613   1.259       .  A
O606       Al614   1.908       .  S
O607        C616   1.259       .  A
O607       Al614   1.909       .  S
O608       Al614   1.898       .  S
O609        C616   1.259       .  A
O610       Al614   1.791       .  S
O611        C612   1.260       .  A
C612        C674   1.435       .  S
C613        C696   1.432       .  S
C616        C676   1.436       .  S
C617        O618   1.260       .  A
C617        C678   1.435       .  S
C619        C667   1.455   1_565  S
C619        C620   1.414       .  A
C620        C666   1.456       .  S
C620        C621   1.414       .  A
C621        C671   1.455       .  S
C621       C1598   1.414       .  A
C622        C669   1.455       .  S
C622       C1597   1.414   1_455  A
C623        C663   1.456       .  S
C623       C1600   1.414   1_455  A
C624        C662   1.455       .  S
C624       C1599   1.414       .  A
C625        C681   1.436       .  S
C625        N630   1.359       .  A
N626        C627   1.357       .  A
C627        C725   1.436       .  S
C627        N628   1.358       .  A
N628        C629   1.357       .  A
C629        C670   1.440       .  S
C631        C677   1.436       .  S
C631        N632   1.357   1_565  A
C631        N636   1.358       .  A
C633        C710   1.437       .  S
C633        N634   1.359       .  A
C635        C668   1.440       .  S
C635        N636   1.357   1_545  A
C637        C722   1.436       .  S
C637        N638   1.358       .  A
C637       N1618   1.357   1_455  A
N638       C1615   1.357   1_455  A
C639        C661   1.440       .  S
C639       N1614   1.357       .  A
C639        N640   1.357       .  A
N640        C641   1.359       .  A
C641        C680   1.436       .  S
C641        N642   1.357       .  A
N642       C1613   1.357       .  A
C643        C673   1.436       .  S
C643        N644   1.359       .  A
C643        N648   1.357       .  A
N644        C645   1.358       .  A
C645        C664   1.440       .  S
C645        N646   1.358       .  A
N646        C647   1.359       .  A
C647        C714   1.436       .  S
C647        N648   1.357       .  A
C649        C675   1.437       .  S
C649        N650   1.359       .  A
C649       N1630   1.358   1_455  A
N650       C1627   1.358   1_455  A
C651        C672   1.440       .  S
C651       N1626   1.358       .  A
C651        N652   1.358       .  A
N652        C653   1.359       .  A
C653        C716   1.437       .  S
C653        N654   1.358       .  A
N654       C1625   1.358       .  A
C655        C684   1.437       .  S
C655        N656   1.358       .  A
C655        N660   1.359       .  A
N656        C657   1.358       .  A
C657        C728   1.437       .  S
C657        N658   1.359       .  A
N658        C659   1.357       .  A
C659        C665   1.440       .  S
C659        N660   1.358       .  A
C661        C662   1.208       .  T
C663        C664   1.209       .  T
C665        C666   1.209       .  T
C667        C668   1.209       .  T
C669        C670   1.209       .  T
C671        C672   1.209       .  T
C673        C674   1.206       .  T
C675        C676   1.206       .  T
C677        C678   1.206       .  T
C679        C680   1.206       .  T
C681        C682   1.206       .  T
C683        C684   1.206       .  T
C685        C686   1.204       .  T
C687        C688   1.204       .  T
C689        C690   1.204       .  T
C691        C692   1.205       .  T
C693        C694   1.204       .  T
C695        C696   1.204       .  T
C697        C698   1.201       .  T
C699        C700   1.201       .  T
C701        C702   1.201       .  T
C703        C704   1.201       .  T
C705        C706   1.201       .  T
C707        C708   1.201       .  T
C709        C710   1.206       .  T
C711        C712   1.204       .  T
C713        C714   1.206       .  T
C715        C716   1.206       .  T
C717        C718   1.204       .  T
C719        C720   1.204       .  T
C721        C722   1.206       .  T
C723        C724   1.204       .  T
C725        C726   1.206       .  T
C727        C728   1.206       .  T
C729        C730   1.204       .  T
C731        C732   1.204       .  T
O733        C748   1.259       .  A
C734        O744   1.259       .  A
C734        O735   1.260       .  A
C734        C970   1.435       .  S
O736        C738   1.259       .  A
Al737       O745   1.899       .  S
Al737       O747   1.907       .  S
Al737       O746   1.792       .  S
C738        O751   1.259       .  A
C738        C965   1.435       .  S
O739        C749   1.259       .  A
O739       Al741   1.903       .  S
O740        C753   1.259       .  A
O740       Al750   1.898       .  S
Al741       O751   1.908       .  S
O742        C749   1.259       .  A
O743        C752   1.258       .  A
O743       Al750   1.908       .  S
O745        C752   1.259       .  A
O746       Al750   1.792       .  S
O747        C748   1.258       .  A
C748        C967   1.433       .  S
C749        C971   1.436       .  S
C752        C974   1.433       .  S
C753        O754   1.259       .  A
C753        C975   1.432       .  S
O755        C770   1.259       .  A
C756        O766   1.259       .  A
C756        O757   1.259       .  A
C756        C957   1.435       .  S
O758        C760   1.259       .  A
Al759       O767   1.900       .  S
Al759       O769   1.906       .  S
C760        O773   1.259       .  A
C760        C953   1.436       .  S
O761        C771   1.259       .  A
O761       Al763   1.902   1_556  S
O762        C775   1.258       .  A
Al763       O773   1.909   1_554  S
Al763       O768   1.792       .  S
O764        C771   1.260       .  A
O764       Al772   1.909   1_556  S
O765        C774   1.258       .  A
O766       Al772   1.902   1_556  S
O767        C774   1.259       .  A
O768       Al772   1.792       .  S
O769        C770   1.258       .  A
C770        C955   1.432       .  S
C771        C959   1.436       .  S
C774        C962   1.433       .  S
C775        O776   1.258       .  A
C775        C964   1.432       .  S
C777        C948   1.444       .  S
C777       C1754   1.405   1_455  A
C778        C949   1.445       .  S
C778       C1753   1.405       .  A
C779        C951   1.444       .  S
C779       C1756   1.406       .  A
C780        C944   1.444       .  S
C780       C1755   1.406   1_455  A
C780        C781   1.405       .  A
C781        C941   1.445       .  S
C781        C782   1.406       .  A
C782        C945   1.444       .  S
C783        C956   1.433       .  S
C783        N784   1.360       .  A
C783        N788   1.355       .  A
C785        C939   1.433       .  S
C785        N786   1.355       .  A
C787        C952   1.427       .  S
C787        N788   1.353       .  A
C789        C973   1.433       .  S
C789        N794   1.355       .  A
N790        C791   1.360       .  A
C791        C938   1.433       .  S
C791        N792   1.355       .  A
N792        C793   1.353       .  A
C793        C946   1.427       .  S
C795        C961   1.433       .  S
C795        N796   1.355       .  A
C795        N800   1.360       .  A
N796        C797   1.353       .  A
C797        C942   1.427       .  S
C797        N798   1.353       .  A
N798        C799   1.355       .  A
C799        C936   1.434       .  S
C799        N800   1.360       .  A
C801        C933   1.433       .  S
C801       N1778   1.360       .  A
C801        N806   1.355       .  A
N802       C1777   1.360   1_455  A
N802        C803   1.360       .  A
C803        C968   1.433       .  S
C803        N804   1.355       .  A
N804        C805   1.353       .  A
C805        C943   1.427       .  S
C805       N1782   1.353   1_455  A
N806       C1781   1.353       .  A
C807        C931   1.432       .  S
C807        N808   1.355       .  A
C807        N812   1.360       .  A
N808        C809   1.353       .  A
C809        C950   1.427       .  S
C809        N810   1.353       .  A
N810        C811   1.355       .  A
C811        C976   1.432       .  S
C811        N812   1.360       .  A
C813        C963   1.432       .  S
C813       N1790   1.360       .  A
C813        N818   1.355       .  A
N814       C1789   1.360   1_455  A
N814        C815   1.360       .  A
C815        C930   1.432       .  S
C815        N816   1.355       .  A
N816        C817   1.353       .  A
C817        C947   1.427       .  S
C817       N1794   1.353   1_455  A
N818       C1793   1.353       .  A
O819        C834   1.259       .  A
O819       Al827   1.899       .  S
C820        O830   1.259       .  A
C820        O821   1.260       .  A
C820        C923   1.435       .  S
O821       Al823   1.909       .  S
O822        C824   1.259       .  A
O822       Al823   1.902       .  S
Al823       O831   1.899       .  S
Al823       O833   1.907       .  S
Al823       O832   1.791       .  S
C824        O837   1.259       .  A
C824        C926   1.435       .  S
O825        C835   1.259       .  A
O825       Al827   1.903       .  S
O826        C839   1.258       .  A
O826       Al836   1.898       .  S
Al827       O840   1.907       .  S
Al827       O837   1.909       .  S
Al827       O832   1.791       .  S
O828        C835   1.260       .  A
O828       Al836   1.910       .  S
O829        C838   1.258       .  A
O829       Al836   1.907       .  S
O830       Al836   1.901       .  S
O831        C838   1.259       .  A
O832       Al836   1.791       .  S
O833        C834   1.258       .  A
C834        C937   1.432       .  S
C835        C927   1.436       .  S
C838        C934   1.433       .  S
C839        O840   1.258       .  A
C839        C932   1.432       .  S
O841        C856   1.259       .  A
O841       Al849   1.902       .  S
C842        O852   1.258       .  A
C842        O843   1.258       .  A
C842        C929   1.432       .  S
O843       Al845   1.907       .  S
O844        C846   1.259       .  A
O844       Al845   1.900       .  S
Al845       O853   1.902       .  S
Al845       O855   1.908       .  S
Al845       O854   1.791       .  S
C846        O859   1.258       .  A
C846        C935   1.433       .  S
O847        C857   1.259       .  A
O847       Al849   1.899       .  S
O848        C861   1.259       .  A
O848       Al858   1.902       .  S
Al849       O862   1.909       .  S
Al849       O859   1.908       .  S
Al849       O854   1.791       .  S
O850        C857   1.259       .  A
O850       Al858   1.908       .  S
O851        C860   1.259       .  A
O851       Al858   1.909       .  S
O852       Al858   1.898       .  S
O853        C860   1.259       .  A
O854       Al858   1.791       .  S
O855        C856   1.260       .  A
C856        C918   1.435       .  S
C857        C940   1.432       .  S
C860        C920   1.436       .  S
C861        O862   1.260       .  A
C861        C922   1.435       .  S
C863        C911   1.455   1_565  S
C863        C864   1.414       .  A
C864        C910   1.456       .  S
C864        C865   1.414       .  A
C865        C915   1.455       .  S
C865       C1842   1.414       .  A
C866        C913   1.455       .  S
C866       C1841   1.414   1_455  A
C867        C907   1.456       .  S
C867       C1844   1.414   1_455  A
C868        C906   1.455       .  S
C868       C1843   1.414       .  A
C869        C925   1.436       .  S
C869        N874   1.359       .  A
N870        C871   1.357       .  A
C871        C969   1.436       .  S
C871        N872   1.358       .  A
N872        C873   1.357       .  A
C873        C914   1.440       .  S
C875        C921   1.436       .  S
C875        N876   1.357   1_565  A
C875        N880   1.358       .  A
C877        C954   1.437       .  S
C877        N878   1.359       .  A
C879        C912   1.440       .  S
C879        N880   1.357   1_545  A
C881        C966   1.436       .  S
C881        N882   1.358       .  A
C881       N1862   1.357   1_455  A
N882       C1859   1.357   1_455  A
C883        C905   1.440       .  S
C883       N1858   1.357       .  A
C883        N884   1.357       .  A
N884        C885   1.358       .  A
C885        C924   1.436       .  S
C885        N886   1.357       .  A
N886       C1857   1.357       .  A
C887        C917   1.436       .  S
C887        N888   1.359       .  A
C887        N892   1.357       .  A
N888        C889   1.358       .  A
C889        C908   1.440       .  S
C889        N890   1.358       .  A
N890        C891   1.359       .  A
C891        C958   1.436       .  S
C891        N892   1.357       .  A
C893        C919   1.437       .  S
C893        N894   1.359       .  A
C893       N1874   1.358   1_455  A
N894       C1871   1.357   1_455  A
C895        C916   1.440       .  S
C895       N1870   1.358       .  A
C895        N896   1.358       .  A
N896        C897   1.359       .  A
C897        C960   1.437       .  S
C897        N898   1.358       .  A
N898       C1869   1.358       .  A
C899        C928   1.437       .  S
C899        N900   1.358       .  A
C899        N904   1.359       .  A
N900        C901   1.358       .  A
C901        C972   1.437       .  S
C901        N902   1.359       .  A
N902        C903   1.357       .  A
C903        C909   1.440       .  S
C903        N904   1.358       .  A
C905        C906   1.208       .  T
C907        C908   1.209       .  T
C909        C910   1.209       .  T
C911        C912   1.209       .  T
C913        C914   1.209       .  T
C915        C916   1.209       .  T
C917        C918   1.206       .  T
C919        C920   1.206       .  T
C921        C922   1.206       .  T
C923        C924   1.206       .  T
C925        C926   1.206       .  T
C927        C928   1.206       .  T
C929        C930   1.204       .  T
C931        C932   1.204       .  T
C933        C934   1.204       .  T
C935        C936   1.205       .  T
C937        C938   1.204       .  T
C939        C940   1.204       .  T
C941        C942   1.201       .  T
C943        C944   1.201       .  T
C945        C946   1.201       .  T
C947        C948   1.201       .  T
C949        C950   1.201       .  T
C951        C952   1.201       .  T
C953        C954   1.206       .  T
C955        C956   1.204       .  T
C957        C958   1.206       .  T
C959        C960   1.206       .  T
C961        C962   1.205       .  T
C963        C964   1.204       .  T
C965        C966   1.206       .  T
C967        C968   1.204       .  T
C969        C970   1.206       .  T
C971        C972   1.206       .  T
C973        C974   1.204       .  T
C975        C976   1.204       .  T
O977        C992   1.259       .  A
O977      Al1229   1.899   1_554  S
C978        O988   1.259       .  A
C978        O979   1.260       .  A
C978       C1214   1.435       .  S
O979      Al1225   1.909       .  S
O980        C982   1.259       .  A
O980      Al1225   1.902       .  S
Al981      O1223   1.909       .  S
Al981      O1224   1.902       .  S
Al981       O989   1.899   1_556  S
Al981       O991   1.907   1_556  S
Al981       O990   1.792       .  S
C982        O995   1.259       .  A
C982       C1209   1.435       .  S
O983        C993   1.259       .  A
O983       Al985   1.903       .  S
O984        C997   1.259       .  A
O984       Al994   1.898   1_554  S
Al985      O1221   1.899       .  S
Al985      O1242   1.907       .  S
Al985       O995   1.908       .  S
Al985      O1234   1.792       .  S
O986        C993   1.259       .  A
O986      Al1238   1.909       .  S
O987        C996   1.258       .  A
O987       Al994   1.908   1_554  S
O988      Al1238   1.902       .  S
O989        C996   1.259       .  A
O990      Al1229   1.792       .  S
O990       Al994   1.792       .  S
O991        C992   1.258       .  A
C992       C1211   1.433       .  S
C993       C1215   1.436       .  S
Al994      O1230   1.909       .  S
Al994      O1232   1.902       .  S
C996       C1218   1.433       .  S
C997        O998   1.259       .  A
C997       C1219   1.432       .  S
O998      Al1229   1.907   1_554  S
O999       C1014   1.259       .  A
O999      Al1251   1.899       .  S
C1000      O1010   1.259       .  A
C1000      O1001   1.259       .  A
C1000      C1201   1.435       .  S
O1001     Al1247   1.908       .  S
O1002      C1004   1.259       .  A
O1002     Al1247   1.903       .  S
Al1003     O1245   1.908   1_554  S
Al1003     O1246   1.903   1_554  S
Al1003     O1011   1.900       .  S
Al1003     O1013   1.906       .  S
Al1003     O1256   1.791       .  S
C1004      O1017   1.259       .  A
C1004      C1197   1.436       .  S
O1005      C1015   1.259       .  A
O1005     Al1007   1.902       .  S
O1006      C1019   1.258       .  A
O1006     Al1260   1.898       .  S
Al1007     O1243   1.899       .  S
Al1007     O1264   1.907       .  S
Al1007     O1017   1.909       .  S
Al1007     O1012   1.792       .  S
O1008      C1015   1.260       .  A
O1008     Al1016   1.909       .  S
O1009      C1018   1.258       .  A
O1009     Al1260   1.907       .  S
O1010     Al1016   1.902       .  S
O1011      C1018   1.259       .  A
O1012     Al1247   1.791       .  S
O1012     Al1016   1.792       .  S
O1013      C1014   1.258       .  A
C1014      C1199   1.432       .  S
C1015      C1203   1.436       .  S
Al1016     O1250   1.898       .  S
Al1016     O1253   1.907       .  S
C1018      C1206   1.433       .  S
C1019      O1020   1.258       .  A
C1019      C1208   1.432       .  S
O1020     Al1251   1.907       .  S
C1021      C1192   1.444       .  S
C1021      C1514   1.406       .  A
C1022      C1193   1.444       .  S
C1022      C1511   1.405       .  A
C1023      C1195   1.444       .  S
C1023      C1510   1.405   1_545  A
C1024      C1188   1.444       .  S
C1024      C1025   1.405       .  A
C1025      C1185   1.444       .  S
C1025      C1026   1.406       .  A
C1026      C1189   1.444       .  S
C1026      C1509   1.406   1_545  A
C1027      C1200   1.432       .  S
C1027      N1028   1.360       .  A
C1027      N1032   1.355       .  A
N1028      C1517   1.360   1_545  A
C1029      C1183   1.433       .  S
C1029      N1516   1.360       .  A
C1029      N1030   1.355       .  A
N1030      C1519   1.353       .  A
C1031      C1196   1.427       .  S
C1031      N1518   1.353   1_545  A
C1031      N1032   1.353       .  A
C1033      C1217   1.433       .  S
C1033      N1522   1.360       .  A
C1033      N1038   1.355       .  A
N1034      C1521   1.360   1_545  A
N1034      C1035   1.360       .  A
C1035      C1182   1.433       .  S
C1035      N1036   1.355       .  A
N1036      C1037   1.353       .  A
C1037      C1190   1.427       .  S
C1037      N1526   1.353   1_545  A
N1038      C1525   1.353       .  A
C1039      C1205   1.433       .  S
C1039      N1040   1.355       .  A
C1039      N1044   1.360       .  A
N1040      C1041   1.353       .  A
C1041      C1186   1.427       .  S
C1041      N1042   1.353       .  A
N1042      C1043   1.355       .  A
C1043      C1180   1.434       .  S
C1043      N1044   1.360       .  A
C1045      C1177   1.433       .  S
C1045      N1050   1.355       .  A
N1046      C1047   1.360       .  A
C1047      C1212   1.433       .  S
C1047      N1048   1.355       .  A
N1048      C1049   1.353       .  A
C1049      C1187   1.427       .  S
C1051      C1175   1.432       .  S
C1051      N1052   1.355       .  A
C1051      N1056   1.360       .  A
N1052      C1053   1.353       .  A
C1053      C1194   1.427       .  S
C1053      N1054   1.353       .  A
N1054      C1055   1.355       .  A
C1055      C1220   1.432       .  S
C1055      N1056   1.360       .  A
C1057      C1207   1.432       .  S
C1057      N1062   1.355       .  A
N1058      C1059   1.360       .  A
C1059      C1174   1.432       .  S
C1059      N1060   1.355       .  A
N1060      C1061   1.353       .  A
C1061      C1191   1.427       .  S
O1063      C1078   1.259       .  A
O1063     Al1071   1.899       .  S
C1064      O1074   1.259       .  A
C1064      O1065   1.260       .  A
C1064      C1167   1.435       .  S
O1065     Al1067   1.909       .  S
O1066      C1068   1.259       .  A
O1066     Al1067   1.902       .  S
Al1067     O1075   1.899       .  S
Al1067     O1077   1.907       .  S
Al1067     O1076   1.791       .  S
C1068      O1081   1.259       .  A
C1068      C1170   1.435       .  S
O1069      C1079   1.259       .  A
O1069     Al1071   1.903       .  S
O1070      C1083   1.258       .  A
O1070     Al1080   1.898       .  S
Al1071     O1084   1.907       .  S
Al1071     O1081   1.909       .  S
Al1071     O1076   1.791       .  S
O1072      C1079   1.260       .  A
O1072     Al1080   1.910       .  S
O1073      C1082   1.258       .  A
O1073     Al1080   1.907       .  S
O1074     Al1080   1.901       .  S
O1075      C1082   1.259       .  A
O1076     Al1080   1.791       .  S
O1077      C1078   1.258       .  A
C1078      C1181   1.432       .  S
C1079      C1171   1.436       .  S
C1082      C1178   1.433       .  S
C1083      O1084   1.258       .  A
C1083      C1176   1.432       .  S
O1085      C1100   1.259       .  A
O1085     Al1093   1.902       .  S
C1086      O1096   1.258       .  A
C1086      O1087   1.258       .  A
C1086      C1173   1.432       .  S
O1087     Al1089   1.907       .  S
O1088      C1090   1.259       .  A
O1088     Al1089   1.900       .  S
Al1089     O1097   1.902       .  S
Al1089     O1099   1.908       .  S
Al1089     O1098   1.791       .  S
C1090      O1103   1.258       .  A
C1090      C1179   1.433       .  S
O1091      C1101   1.259       .  A
O1091     Al1093   1.899       .  S
O1092      C1105   1.259       .  A
O1092     Al1102   1.902       .  S
Al1093     O1106   1.909       .  S
Al1093     O1103   1.908       .  S
Al1093     O1098   1.791       .  S
O1094      C1101   1.259       .  A
O1094     Al1102   1.908       .  S
O1095      C1104   1.259       .  A
O1095     Al1102   1.909       .  S
O1096     Al1102   1.898       .  S
O1097      C1104   1.259       .  A
O1098     Al1102   1.791       .  S
O1099      C1100   1.260       .  A
C1100      C1162   1.435       .  S
C1101      C1184   1.432       .  S
C1104      C1164   1.436       .  S
C1105      O1106   1.260       .  A
C1105      C1166   1.435       .  S
C1107      C1155   1.455       .  S
C1107      C1108   1.414       .  A
C1107      C1600   1.414       .  A
C1108      C1154   1.456       .  S
C1108      C1109   1.414       .  A
C1109      C1159   1.455       .  S
C1110      C1157   1.455       .  S
C1110      C1599   1.414       .  A
C1111      C1151   1.456       .  S
C1111      C1598   1.414   1_545  A
C1112      C1150   1.455       .  S
C1112      C1595   1.414   1_545  A
C1113      C1169   1.436       .  S
C1113      N1602   1.357   1_545  A
C1113      N1118   1.359       .  A
N1114      C1601   1.357       .  A
N1114      C1115   1.357       .  A
C1115      C1213   1.436       .  S
C1115      N1116   1.358       .  A
N1116      C1117   1.357       .  A
C1117      C1158   1.440       .  S
C1117      N1606   1.358       .  A
N1118      C1605   1.358   1_545  A
C1119      C1165   1.436       .  S
C1119      N1120   1.357       .  A
C1119      N1124   1.358       .  A
N1120      C1609   1.358       .  A
C1121      C1198   1.437       .  S
C1121      N1608   1.358       .  A
C1121      N1122   1.359       .  A
N1122      C1611   1.358       .  A
C1123      C1156   1.440       .  S
C1123      N1610   1.358       .  A
C1123      N1124   1.357       .  A
C1125      C1210   1.436       .  S
C1125      N1126   1.358       .  A
C1127      C1149   1.440       .  S
C1127      N1128   1.357       .  A
N1128      C1129   1.358       .  A
C1129      C1168   1.436       .  S
C1129      N1130   1.357       .  A
C1131      C1161   1.436       .  S
C1131      N1132   1.359       .  A
C1131      N1136   1.357       .  A
N1132      C1133   1.358       .  A
C1133      C1152   1.440       .  S
C1133      N1134   1.358       .  A
N1134      C1135   1.359       .  A
C1135      C1202   1.436       .  S
C1135      N1136   1.357       .  A
C1137      C1163   1.437       .  S
C1137      N1138   1.359       .  A
C1139      C1160   1.440       .  S
C1139      N1140   1.358       .  A
N1140      C1141   1.359       .  A
C1141      C1204   1.437       .  S
C1141      N1142   1.358       .  A
C1143      C1172   1.437       .  S
C1143      N1144   1.358       .  A
C1143      N1148   1.359       .  A
N1144      C1145   1.358       .  A
C1145      C1216   1.437       .  S
C1145      N1146   1.359       .  A
N1146      C1147   1.357       .  A
C1147      C1153   1.440       .  S
C1147      N1148   1.358       .  A
C1149      C1150   1.208       .  T
C1151      C1152   1.209       .  T
C1153      C1154   1.209       .  T
C1155      C1156   1.209       .  T
C1157      C1158   1.209       .  T
C1159      C1160   1.209       .  T
C1161      C1162   1.206       .  T
C1163      C1164   1.206       .  T
C1165      C1166   1.206       .  T
C1167      C1168   1.206       .  T
C1169      C1170   1.206       .  T
C1171      C1172   1.206       .  T
C1173      C1174   1.204       .  T
C1175      C1176   1.204       .  T
C1177      C1178   1.204       .  T
C1179      C1180   1.205       .  T
C1181      C1182   1.204       .  T
C1183      C1184   1.204       .  T
C1185      C1186   1.201       .  T
C1187      C1188   1.201       .  T
C1189      C1190   1.201       .  T
C1191      C1192   1.201       .  T
C1193      C1194   1.201       .  T
C1195      C1196   1.201       .  T
C1197      C1198   1.206       .  T
C1199      C1200   1.204       .  T
C1201      C1202   1.206       .  T
C1203      C1204   1.206       .  T
C1205      C1206   1.204       .  T
C1207      C1208   1.204       .  T
C1209      C1210   1.206       .  T
C1211      C1212   1.204       .  T
C1213      C1214   1.206       .  T
C1215      C1216   1.206       .  T
C1217      C1218   1.204       .  T
C1219      C1220   1.204       .  T
O1221      C1236   1.259       .  A
C1222      O1232   1.259       .  A
C1222      O1223   1.260       .  A
C1222      C1458   1.435       .  S
O1224      C1226   1.259       .  A
Al1225     O1233   1.899       .  S
Al1225     O1235   1.907       .  S
Al1225     O1234   1.792       .  S
C1226      O1239   1.259       .  A
C1226      C1453   1.435       .  S
O1227      C1237   1.259       .  A
O1227     Al1229   1.903       .  S
O1228      C1241   1.259       .  A
O1228     Al1238   1.898       .  S
Al1229     O1239   1.908       .  S
O1230      C1237   1.259       .  A
O1231      C1240   1.258       .  A
O1231     Al1238   1.908       .  S
O1233      C1240   1.259       .  A
O1234     Al1238   1.792       .  S
O1235      C1236   1.258       .  A
C1236      C1455   1.433       .  S
C1237      C1459   1.436       .  S
C1240      C1462   1.433       .  S
C1241      O1242   1.259       .  A
C1241      C1463   1.432       .  S
O1243      C1258   1.259       .  A
C1244      O1254   1.259       .  A
C1244      O1245   1.259       .  A
C1244      C1445   1.435       .  S
O1246      C1248   1.259       .  A
Al1247     O1255   1.900       .  S
Al1247     O1257   1.906       .  S
C1248      O1261   1.259       .  A
C1248      C1441   1.436       .  S
O1249      C1259   1.259       .  A
O1249     Al1251   1.902   1_556  S
O1250      C1263   1.258       .  A
Al1251     O1261   1.909   1_554  S
Al1251     O1256   1.792       .  S
O1252      C1259   1.260       .  A
O1252     Al1260   1.909   1_556  S
O1253      C1262   1.258       .  A
O1254     Al1260   1.902   1_556  S
O1255      C1262   1.259       .  A
O1256     Al1260   1.792       .  S
O1257      C1258   1.258       .  A
C1258      C1443   1.432       .  S
C1259      C1447   1.436       .  S
C1262      C1450   1.433       .  S
C1263      O1264   1.258       .  A
C1263      C1452   1.432       .  S
C1265      C1436   1.444       .  S
C1265      C1758   1.406       .  A
C1266      C1437   1.444       .  S
C1266      C1755   1.405       .  A
C1267      C1439   1.444       .  S
C1267      C1754   1.405   1_545  A
C1268      C1432   1.444       .  S
C1268      C1269   1.405       .  A
C1269      C1429   1.445       .  S
C1269      C1270   1.406       .  A
C1270      C1433   1.444       .  S
C1270      C1753   1.406   1_545  A
C1271      C1444   1.432       .  S
C1271      N1272   1.360       .  A
C1271      N1276   1.355       .  A
N1272      C1761   1.360   1_545  A
C1273      C1427   1.433       .  S
C1273      N1760   1.360       .  A
C1273      N1274   1.355       .  A
N1274      C1763   1.353       .  A
C1275      C1440   1.427       .  S
C1275      N1762   1.353   1_545  A
C1275      N1276   1.353       .  A
C1277      C1461   1.433       .  S
C1277      N1766   1.360       .  A
C1277      N1282   1.355       .  A
N1278      C1765   1.360   1_545  A
N1278      C1279   1.360       .  A
C1279      C1426   1.433       .  S
C1279      N1280   1.355       .  A
N1280      C1281   1.353       .  A
C1281      C1434   1.427       .  S
C1281      N1770   1.353   1_545  A
N1282      C1769   1.353       .  A
C1283      C1449   1.433       .  S
C1283      N1284   1.355       .  A
C1283      N1288   1.360       .  A
N1284      C1285   1.353       .  A
C1285      C1430   1.427       .  S
C1285      N1286   1.353       .  A
N1286      C1287   1.355       .  A
C1287      C1424   1.434       .  S
C1287      N1288   1.360       .  A
C1289      C1421   1.433       .  S
C1289      N1294   1.355       .  A
N1290      C1291   1.360       .  A
C1291      C1456   1.433       .  S
C1291      N1292   1.355       .  A
N1292      C1293   1.353       .  A
C1293      C1431   1.427       .  S
C1295      C1419   1.432       .  S
C1295      N1296   1.355       .  A
C1295      N1300   1.360       .  A
N1296      C1297   1.353       .  A
C1297      C1438   1.427       .  S
C1297      N1298   1.353       .  A
N1298      C1299   1.355       .  A
C1299      C1464   1.432       .  S
C1299      N1300   1.360       .  A
C1301      C1451   1.432       .  S
C1301      N1306   1.355       .  A
N1302      C1303   1.360       .  A
C1303      C1418   1.432       .  S
C1303      N1304   1.355       .  A
N1304      C1305   1.353       .  A
C1305      C1435   1.427       .  S
O1307      C1322   1.259       .  A
O1307     Al1315   1.899       .  S
C1308      O1318   1.259       .  A
C1308      O1309   1.260       .  A
C1308      C1411   1.435       .  S
O1309     Al1311   1.909       .  S
O1310      C1312   1.259       .  A
O1310     Al1311   1.902       .  S
Al1311     O1319   1.899       .  S
Al1311     O1321   1.907       .  S
Al1311     O1320   1.791       .  S
C1312      O1325   1.259       .  A
C1312      C1414   1.435       .  S
O1313      C1323   1.259       .  A
O1313     Al1315   1.903       .  S
O1314      C1327   1.258       .  A
O1314     Al1324   1.898       .  S
Al1315     O1328   1.907       .  S
Al1315     O1325   1.909       .  S
Al1315     O1320   1.791       .  S
O1316      C1323   1.260       .  A
O1316     Al1324   1.910       .  S
O1317      C1326   1.258       .  A
O1317     Al1324   1.907       .  S
O1318     Al1324   1.901       .  S
O1319      C1326   1.259       .  A
O1320     Al1324   1.791       .  S
O1321      C1322   1.258       .  A
C1322      C1425   1.432       .  S
C1323      C1415   1.436       .  S
C1326      C1422   1.433       .  S
C1327      O1328   1.258       .  A
C1327      C1420   1.432       .  S
O1329      C1344   1.259       .  A
O1329     Al1337   1.902       .  S
C1330      O1340   1.258       .  A
C1330      O1331   1.258       .  A
C1330      C1417   1.432       .  S
O1331     Al1333   1.907       .  S
O1332      C1334   1.259       .  A
O1332     Al1333   1.900       .  S
Al1333     O1341   1.902       .  S
Al1333     O1343   1.908       .  S
Al1333     O1342   1.791       .  S
C1334      O1347   1.258       .  A
C1334      C1423   1.433       .  S
O1335      C1345   1.259       .  A
O1335     Al1337   1.899       .  S
O1336      C1349   1.259       .  A
O1336     Al1346   1.902       .  S
Al1337     O1350   1.909       .  S
Al1337     O1347   1.908       .  S
Al1337     O1342   1.791       .  S
O1338      C1345   1.259       .  A
O1338     Al1346   1.908       .  S
O1339      C1348   1.259       .  A
O1339     Al1346   1.909       .  S
O1340     Al1346   1.898       .  S
O1341      C1348   1.259       .  A
O1342     Al1346   1.791       .  S
O1343      C1344   1.260       .  A
C1344      C1406   1.435       .  S
C1345      C1428   1.432       .  S
C1348      C1408   1.436       .  S
C1349      O1350   1.260       .  A
C1349      C1410   1.435       .  S
C1351      C1399   1.455       .  S
C1351      C1352   1.414       .  A
C1351      C1844   1.414       .  A
C1352      C1398   1.456       .  S
C1352      C1353   1.414       .  A
C1353      C1403   1.455       .  S
C1354      C1401   1.455       .  S
C1354      C1843   1.414       .  A
C1355      C1395   1.456       .  S
C1355      C1842   1.414   1_545  A
C1356      C1394   1.455       .  S
C1356      C1839   1.414   1_545  A
C1357      C1413   1.436       .  S
C1357      N1846   1.357   1_545  A
C1357      N1362   1.359       .  A
N1358      C1845   1.357       .  A
N1358      C1359   1.357       .  A
C1359      C1457   1.436       .  S
C1359      N1360   1.358       .  A
N1360      C1361   1.357       .  A
C1361      C1402   1.440       .  S
C1361      N1850   1.358       .  A
N1362      C1849   1.358   1_545  A
C1363      C1409   1.436       .  S
C1363      N1364   1.357       .  A
C1363      N1368   1.358       .  A
N1364      C1853   1.358       .  A
C1365      C1442   1.437       .  S
C1365      N1852   1.358       .  A
C1365      N1366   1.359       .  A
N1366      C1855   1.358       .  A
C1367      C1400   1.440       .  S
C1367      N1854   1.358       .  A
C1367      N1368   1.357       .  A
C1369      C1454   1.436       .  S
C1369      N1370   1.358       .  A
C1371      C1393   1.440       .  S
C1371      N1372   1.357       .  A
N1372      C1373   1.358       .  A
C1373      C1412   1.436       .  S
C1373      N1374   1.357       .  A
C1375      C1405   1.436       .  S
C1375      N1376   1.359       .  A
C1375      N1380   1.357       .  A
N1376      C1377   1.358       .  A
C1377      C1396   1.440       .  S
C1377      N1378   1.358       .  A
N1378      C1379   1.359       .  A
C1379      C1446   1.436       .  S
C1379      N1380   1.357       .  A
C1381      C1407   1.437       .  S
C1381      N1382   1.359       .  A
C1383      C1404   1.440       .  S
C1383      N1384   1.358       .  A
N1384      C1385   1.359       .  A
C1385      C1448   1.437       .  S
C1385      N1386   1.358       .  A
C1387      C1416   1.437       .  S
C1387      N1388   1.358       .  A
C1387      N1392   1.359       .  A
N1388      C1389   1.358       .  A
C1389      C1460   1.437       .  S
C1389      N1390   1.359       .  A
N1390      C1391   1.357       .  A
C1391      C1397   1.440       .  S
C1391      N1392   1.358       .  A
C1393      C1394   1.208       .  T
C1395      C1396   1.209       .  T
C1397      C1398   1.209       .  T
C1399      C1400   1.209       .  T
C1401      C1402   1.209       .  T
C1403      C1404   1.209       .  T
C1405      C1406   1.206       .  T
C1407      C1408   1.206       .  T
C1409      C1410   1.206       .  T
C1411      C1412   1.206       .  T
C1413      C1414   1.206       .  T
C1415      C1416   1.206       .  T
C1417      C1418   1.204       .  T
C1419      C1420   1.204       .  T
C1421      C1422   1.204       .  T
C1423      C1424   1.205       .  T
C1425      C1426   1.204       .  T
C1427      C1428   1.204       .  T
C1429      C1430   1.201       .  T
C1431      C1432   1.201       .  T
C1433      C1434   1.201       .  T
C1435      C1436   1.201       .  T
C1437      C1438   1.201       .  T
C1439      C1440   1.201       .  T
C1441      C1442   1.206       .  T
C1443      C1444   1.204       .  T
C1445      C1446   1.206       .  T
C1447      C1448   1.206       .  T
C1449      C1450   1.204       .  T
C1451      C1452   1.204       .  T
C1453      C1454   1.206       .  T
C1455      C1456   1.204       .  T
C1457      C1458   1.206       .  T
C1459      C1460   1.206       .  T
C1461      C1462   1.204       .  T
C1463      C1464   1.204       .  T
O1465      C1480   1.259       .  A
O1465     Al1717   1.899   1_554  S
C1466      O1476   1.259       .  A
C1466      O1467   1.260       .  A
C1466      C1702   1.435       .  S
O1467     Al1713   1.909       .  S
O1468      C1470   1.259       .  A
O1468     Al1713   1.902       .  S
Al1469     O1711   1.909       .  S
Al1469     O1712   1.902       .  S
Al1469     O1477   1.899   1_556  S
Al1469     O1479   1.907   1_556  S
Al1469     O1478   1.792       .  S
C1470      O1483   1.259       .  A
C1470      C1697   1.435       .  S
O1471      C1481   1.259       .  A
O1471     Al1473   1.903       .  S
O1472      C1485   1.259       .  A
O1472     Al1482   1.898   1_554  S
Al1473     O1709   1.899       .  S
Al1473     O1730   1.907       .  S
Al1473     O1483   1.908       .  S
Al1473     O1722   1.792       .  S
O1474      C1481   1.259       .  A
O1474     Al1726   1.909       .  S
O1475      C1484   1.258       .  A
O1475     Al1482   1.908   1_554  S
O1476     Al1726   1.902       .  S
O1477      C1484   1.259       .  A
O1478     Al1717   1.792       .  S
O1478     Al1482   1.792       .  S
O1479      C1480   1.258       .  A
C1480      C1699   1.433       .  S
C1481      C1703   1.436       .  S
Al1482     O1718   1.909       .  S
Al1482     O1720   1.902       .  S
C1484      C1706   1.433       .  S
C1485      O1486   1.259       .  A
C1485      C1707   1.432       .  S
O1486     Al1717   1.907   1_554  S
O1487      C1502   1.259       .  A
O1487     Al1739   1.899       .  S
C1488      O1498   1.259       .  A
C1488      O1489   1.259       .  A
C1488      C1689   1.435       .  S
O1489     Al1735   1.908       .  S
O1490      C1492   1.259       .  A
O1490     Al1735   1.903       .  S
Al1491     O1733   1.908   1_554  S
Al1491     O1734   1.903   1_554  S
Al1491     O1499   1.900       .  S
Al1491     O1501   1.906       .  S
Al1491     O1744   1.791       .  S
C1492      O1505   1.259       .  A
C1492      C1685   1.436       .  S
O1493      C1503   1.259       .  A
O1493     Al1495   1.902       .  S
O1494      C1507   1.258       .  A
O1494     Al1748   1.898       .  S
Al1495     O1731   1.899       .  S
Al1495     O1752   1.907       .  S
Al1495     O1505   1.909       .  S
Al1495     O1500   1.792       .  S
O1496      C1503   1.260       .  A
O1496     Al1504   1.909       .  S
O1497      C1506   1.258       .  A
O1497     Al1748   1.907       .  S
O1498     Al1504   1.902       .  S
O1499      C1506   1.259       .  A
O1500     Al1735   1.791       .  S
O1500     Al1504   1.792       .  S
O1501      C1502   1.258       .  A
C1502      C1687   1.432       .  S
C1503      C1691   1.436       .  S
Al1504     O1738   1.898       .  S
Al1504     O1741   1.907       .  S
C1506      C1694   1.433       .  S
C1507      O1508   1.258       .  A
C1507      C1696   1.432       .  S
O1508     Al1739   1.907       .  S
C1509      C1680   1.444       .  S
C1510      C1681   1.445       .  S
C1511      C1683   1.444       .  S
C1512      C1676   1.444       .  S
C1512      C1513   1.405       .  A
C1513      C1673   1.445       .  S
C1513      C1514   1.406       .  A
C1514      C1677   1.444       .  S
C1515      C1688   1.433       .  S
C1515      N1516   1.360       .  A
C1515      N1520   1.355       .  A
C1517      C1671   1.433       .  S
C1517      N1518   1.355       .  A
C1519      C1684   1.427       .  S
C1519      N1520   1.353       .  A
C1521      C1705   1.433       .  S
C1521      N1526   1.355       .  A
N1522      C1523   1.360       .  A
C1523      C1670   1.433       .  S
C1523      N1524   1.355       .  A
N1524      C1525   1.353       .  A
C1525      C1678   1.427       .  S
C1527      C1693   1.433       .  S
C1527      N1528   1.355       .  A
C1527      N1532   1.360       .  A
N1528      C1529   1.353       .  A
C1529      C1674   1.427       .  S
C1529      N1530   1.353       .  A
N1530      C1531   1.355       .  A
C1531      C1668   1.434       .  S
C1531      N1532   1.360       .  A
C1533      C1665   1.433       .  S
C1533      N1538   1.355       .  A
N1534      C1535   1.360       .  A
C1535      C1700   1.433       .  S
C1535      N1536   1.355       .  A
N1536      C1537   1.353       .  A
C1537      C1675   1.427       .  S
C1539      C1663   1.432       .  S
C1539      N1540   1.355       .  A
C1539      N1544   1.360       .  A
N1540      C1541   1.353       .  A
C1541      C1682   1.427       .  S
C1541      N1542   1.353       .  A
N1542      C1543   1.355       .  A
C1543      C1708   1.433       .  S
C1543      N1544   1.360       .  A
C1545      C1695   1.432       .  S
C1545      N1550   1.355       .  A
N1546      C1547   1.360       .  A
C1547      C1662   1.432       .  S
C1547      N1548   1.355       .  A
N1548      C1549   1.353       .  A
C1549      C1679   1.427       .  S
O1551      C1566   1.259       .  A
O1551     Al1559   1.899       .  S
C1552      O1562   1.259       .  A
C1552      O1553   1.260       .  A
C1552      C1655   1.435       .  S
O1553     Al1555   1.909       .  S
O1554      C1556   1.259       .  A
O1554     Al1555   1.902       .  S
Al1555     O1563   1.899       .  S
Al1555     O1565   1.907       .  S
Al1555     O1564   1.791       .  S
C1556      O1569   1.259       .  A
C1556      C1658   1.435       .  S
O1557      C1567   1.259       .  A
O1557     Al1559   1.903       .  S
O1558      C1571   1.258       .  A
O1558     Al1568   1.898       .  S
Al1559     O1572   1.907       .  S
Al1559     O1569   1.909       .  S
Al1559     O1564   1.791       .  S
O1560      C1567   1.260       .  A
O1560     Al1568   1.910       .  S
O1561      C1570   1.258       .  A
O1561     Al1568   1.907       .  S
O1562     Al1568   1.901       .  S
O1563      C1570   1.259       .  A
O1564     Al1568   1.791       .  S
O1565      C1566   1.258       .  A
C1566      C1669   1.432       .  S
C1567      C1659   1.436       .  S
C1570      C1666   1.433       .  S
C1571      O1572   1.258       .  A
C1571      C1664   1.432       .  S
O1573      C1588   1.259       .  A
O1573     Al1581   1.902       .  S
C1574      O1584   1.258       .  A
C1574      O1575   1.258       .  A
C1574      C1661   1.432       .  S
O1575     Al1577   1.907       .  S
O1576      C1578   1.259       .  A
O1576     Al1577   1.900       .  S
Al1577     O1585   1.902       .  S
Al1577     O1587   1.908       .  S
Al1577     O1586   1.791       .  S
C1578      O1591   1.258       .  A
C1578      C1667   1.433       .  S
O1579      C1589   1.259       .  A
O1579     Al1581   1.899       .  S
O1580      C1593   1.259       .  A
O1580     Al1590   1.902       .  S
Al1581     O1594   1.909       .  S
Al1581     O1591   1.908       .  S
Al1581     O1586   1.791       .  S
O1582      C1589   1.259       .  A
O1582     Al1590   1.908       .  S
O1583      C1592   1.259       .  A
O1583     Al1590   1.909       .  S
O1584     Al1590   1.898       .  S
O1585      C1592   1.259       .  A
O1586     Al1590   1.791       .  S
O1587      C1588   1.260       .  A
C1588      C1650   1.435       .  S
C1589      C1672   1.432       .  S
C1592      C1652   1.436       .  S
C1593      O1594   1.260       .  A
C1593      C1654   1.435       .  S
C1595      C1643   1.455   1_565  S
C1595      C1596   1.414       .  A
C1596      C1642   1.456       .  S
C1596      C1597   1.414       .  A
C1597      C1647   1.455       .  S
C1598      C1645   1.455       .  S
C1599      C1639   1.456       .  S
C1600      C1638   1.455       .  S
C1601      C1657   1.436       .  S
C1601      N1606   1.359       .  A
N1602      C1603   1.357       .  A
C1603      C1701   1.436       .  S
C1603      N1604   1.358       .  A
N1604      C1605   1.357       .  A
C1605      C1646   1.440       .  S
C1607      C1653   1.436       .  S
C1607      N1608   1.357   1_565  A
C1607      N1612   1.358       .  A
C1609      C1686   1.437       .  S
C1609      N1610   1.359       .  A
C1611      C1644   1.440       .  S
C1611      N1612   1.357   1_545  A
C1613      C1698   1.436       .  S
C1613      N1614   1.358       .  A
C1615      C1637   1.440       .  S
C1615      N1616   1.357       .  A
N1616      C1617   1.359       .  A
C1617      C1656   1.436       .  S
C1617      N1618   1.357       .  A
C1619      C1649   1.436       .  S
C1619      N1620   1.359       .  A
C1619      N1624   1.357       .  A
N1620      C1621   1.358       .  A
C1621      C1640   1.440       .  S
C1621      N1622   1.358       .  A
N1622      C1623   1.359       .  A
C1623      C1690   1.436       .  S
C1623      N1624   1.357       .  A
C1625      C1651   1.437       .  S
C1625      N1626   1.359       .  A
C1627      C1648   1.440       .  S
C1627      N1628   1.358       .  A
N1628      C1629   1.359       .  A
C1629      C1692   1.437       .  S
C1629      N1630   1.358       .  A
C1631      C1660   1.437       .  S
C1631      N1632   1.358       .  A
C1631      N1636   1.359       .  A
N1632      C1633   1.358       .  A
C1633      C1704   1.437       .  S
C1633      N1634   1.359       .  A
N1634      C1635   1.357       .  A
C1635      C1641   1.440       .  S
C1635      N1636   1.358       .  A
C1637      C1638   1.208       .  T
C1639      C1640   1.209       .  T
C1641      C1642   1.209       .  T
C1643      C1644   1.209       .  T
C1645      C1646   1.208       .  T
C1647      C1648   1.209       .  T
C1649      C1650   1.206       .  T
C1651      C1652   1.206       .  T
C1653      C1654   1.206       .  T
C1655      C1656   1.206       .  T
C1657      C1658   1.206       .  T
C1659      C1660   1.206       .  T
C1661      C1662   1.204       .  T
C1663      C1664   1.204       .  T
C1665      C1666   1.204       .  T
C1667      C1668   1.205       .  T
C1669      C1670   1.204       .  T
C1671      C1672   1.204       .  T
C1673      C1674   1.201       .  T
C1675      C1676   1.201       .  T
C1677      C1678   1.201       .  T
C1679      C1680   1.201       .  T
C1681      C1682   1.201       .  T
C1683      C1684   1.201       .  T
C1685      C1686   1.206       .  T
C1687      C1688   1.204       .  T
C1689      C1690   1.206       .  T
C1691      C1692   1.206       .  T
C1693      C1694   1.204       .  T
C1695      C1696   1.204       .  T
C1697      C1698   1.206       .  T
C1699      C1700   1.205       .  T
C1701      C1702   1.206       .  T
C1703      C1704   1.206       .  T
C1705      C1706   1.204       .  T
C1707      C1708   1.204       .  T
O1709      C1724   1.259       .  A
C1710      O1720   1.259       .  A
C1710      O1711   1.260       .  A
C1710      C1946   1.435       .  S
O1712      C1714   1.259       .  A
Al1713     O1721   1.899       .  S
Al1713     O1723   1.907       .  S
Al1713     O1722   1.792       .  S
C1714      O1727   1.259       .  A
C1714      C1941   1.435       .  S
O1715      C1725   1.259       .  A
O1715     Al1717   1.903       .  S
O1716      C1729   1.259       .  A
O1716     Al1726   1.898       .  S
Al1717     O1727   1.908       .  S
O1718      C1725   1.259       .  A
O1719      C1728   1.258       .  A
O1719     Al1726   1.908       .  S
O1721      C1728   1.259       .  A
O1722     Al1726   1.792       .  S
O1723      C1724   1.258       .  A
C1724      C1943   1.433       .  S
C1725      C1947   1.436       .  S
C1728      C1950   1.433       .  S
C1729      O1730   1.259       .  A
C1729      C1951   1.432       .  S
O1731      C1746   1.259       .  A
C1732      O1742   1.259       .  A
C1732      O1733   1.259       .  A
C1732      C1933   1.435       .  S
O1734      C1736   1.259       .  A
Al1735     O1743   1.900       .  S
Al1735     O1745   1.906       .  S
C1736      O1749   1.259       .  A
C1736      C1929   1.436       .  S
O1737      C1747   1.259       .  A
O1737     Al1739   1.902   1_556  S
O1738      C1751   1.258       .  A
Al1739     O1749   1.909   1_554  S
Al1739     O1744   1.792       .  S
O1740      C1747   1.260       .  A
O1740     Al1748   1.909   1_556  S
O1741      C1750   1.258       .  A
O1742     Al1748   1.902   1_556  S
O1743      C1750   1.259       .  A
O1744     Al1748   1.792       .  S
O1745      C1746   1.258       .  A
C1746      C1931   1.432       .  S
C1747      C1935   1.436       .  S
C1750      C1938   1.433       .  S
C1751      O1752   1.258       .  A
C1751      C1940   1.432       .  S
C1753      C1924   1.444       .  S
C1754      C1925   1.444       .  S
C1755      C1927   1.444       .  S
C1756      C1920   1.444       .  S
C1756      C1757   1.405       .  A
C1757      C1917   1.445       .  S
C1757      C1758   1.406       .  A
C1758      C1921   1.444       .  S
C1759      C1932   1.433       .  S
C1759      N1760   1.360       .  A
C1759      N1764   1.355       .  A
C1761      C1915   1.433       .  S
C1761      N1762   1.355       .  A
C1763      C1928   1.427       .  S
C1763      N1764   1.353       .  A
C1765      C1949   1.433       .  S
C1765      N1770   1.355       .  A
N1766      C1767   1.360       .  A
C1767      C1914   1.433       .  S
C1767      N1768   1.355       .  A
N1768      C1769   1.353       .  A
C1769      C1922   1.427       .  S
C1771      C1937   1.433       .  S
C1771      N1772   1.355       .  A
C1771      N1776   1.360       .  A
N1772      C1773   1.353       .  A
C1773      C1918   1.427       .  S
C1773      N1774   1.353       .  A
N1774      C1775   1.355       .  A
C1775      C1912   1.434       .  S
C1775      N1776   1.360       .  A
C1777      C1909   1.433       .  S
C1777      N1782   1.355       .  A
N1778      C1779   1.360       .  A
C1779      C1944   1.434       .  S
C1779      N1780   1.355       .  A
N1780      C1781   1.353       .  A
C1781      C1919   1.427       .  S
C1783      C1907   1.432       .  S
C1783      N1784   1.355       .  A
C1783      N1788   1.360       .  A
N1784      C1785   1.353       .  A
C1785      C1926   1.427       .  S
C1785      N1786   1.353       .  A
N1786      C1787   1.355       .  A
C1787      C1952   1.432       .  S
C1787      N1788   1.360       .  A
C1789      C1939   1.432       .  S
C1789      N1794   1.355       .  A
N1790      C1791   1.360       .  A
C1791      C1906   1.432       .  S
C1791      N1792   1.355       .  A
N1792      C1793   1.353       .  A
C1793      C1923   1.427       .  S
O1795      C1810   1.259       .  A
O1795     Al1803   1.899       .  S
C1796      O1806   1.259       .  A
C1796      O1797   1.260       .  A
C1796      C1899   1.435       .  S
O1797     Al1799   1.909       .  S
O1798      C1800   1.259       .  A
O1798     Al1799   1.902       .  S
Al1799     O1807   1.899       .  S
Al1799     O1809   1.907       .  S
Al1799     O1808   1.791       .  S
C1800      O1813   1.259       .  A
C1800      C1902   1.435       .  S
O1801      C1811   1.259       .  A
O1801     Al1803   1.903       .  S
O1802      C1815   1.258       .  A
O1802     Al1812   1.898       .  S
Al1803     O1816   1.907       .  S
Al1803     O1813   1.909       .  S
Al1803     O1808   1.791       .  S
O1804      C1811   1.260       .  A
O1804     Al1812   1.910       .  S
O1805      C1814   1.258       .  A
O1805     Al1812   1.907       .  S
O1806     Al1812   1.901       .  S
O1807      C1814   1.259       .  A
O1808     Al1812   1.791       .  S
O1809      C1810   1.258       .  A
C1810      C1913   1.432       .  S
C1811      C1903   1.436       .  S
C1814      C1910   1.433       .  S
C1815      O1816   1.258       .  A
C1815      C1908   1.432       .  S
O1817      C1832   1.259       .  A
O1817     Al1825   1.902       .  S
C1818      O1828   1.258       .  A
C1818      O1819   1.258       .  A
C1818      C1905   1.432       .  S
O1819     Al1821   1.907       .  S
O1820      C1822   1.259       .  A
O1820     Al1821   1.900       .  S
Al1821     O1829   1.902       .  S
Al1821     O1831   1.908       .  S
Al1821     O1830   1.791       .  S
C1822      O1835   1.258       .  A
C1822      C1911   1.433       .  S
O1823      C1833   1.259       .  A
O1823     Al1825   1.899       .  S
O1824      C1837   1.259       .  A
O1824     Al1834   1.902       .  S
Al1825     O1838   1.909       .  S
Al1825     O1835   1.908       .  S
Al1825     O1830   1.791       .  S
O1826      C1833   1.259       .  A
O1826     Al1834   1.908       .  S
O1827      C1836   1.259       .  A
O1827     Al1834   1.909       .  S
O1828     Al1834   1.898       .  S
O1829      C1836   1.259       .  A
O1830     Al1834   1.791       .  S
O1831      C1832   1.260       .  A
C1832      C1894   1.435       .  S
C1833      C1916   1.432       .  S
C1836      C1896   1.436       .  S
C1837      O1838   1.260       .  A
C1837      C1898   1.435       .  S
C1839      C1887   1.455   1_565  S
C1839      C1840   1.414       .  A
C1840      C1886   1.456       .  S
C1840      C1841   1.414       .  A
C1841      C1891   1.455       .  S
C1842      C1889   1.455       .  S
C1843      C1883   1.456       .  S
C1844      C1882   1.455       .  S
C1845      C1901   1.436       .  S
C1845      N1850   1.359       .  A
N1846      C1847   1.357       .  A
C1847      C1945   1.436       .  S
C1847      N1848   1.358       .  A
N1848      C1849   1.357       .  A
C1849      C1890   1.440       .  S
C1851      C1897   1.436       .  S
C1851      N1852   1.357   1_565  A
C1851      N1856   1.358       .  A
C1853      C1930   1.437       .  S
C1853      N1854   1.359       .  A
C1855      C1888   1.440       .  S
C1855      N1856   1.357   1_545  A
C1857      C1942   1.436       .  S
C1857      N1858   1.358       .  A
C1859      C1881   1.440       .  S
C1859      N1860   1.357       .  A
N1860      C1861   1.358       .  A
C1861      C1900   1.436       .  S
C1861      N1862   1.357       .  A
C1863      C1893   1.436       .  S
C1863      N1864   1.359       .  A
C1863      N1868   1.357       .  A
N1864      C1865   1.358       .  A
C1865      C1884   1.440       .  S
C1865      N1866   1.358       .  A
N1866      C1867   1.359       .  A
C1867      C1934   1.436       .  S
C1867      N1868   1.357       .  A
C1869      C1895   1.437       .  S
C1869      N1870   1.359       .  A
C1871      C1892   1.440       .  S
C1871      N1872   1.358       .  A
N1872      C1873   1.359       .  A
C1873      C1936   1.437       .  S
C1873      N1874   1.358       .  A
C1875      C1904   1.437       .  S
C1875      N1876   1.358       .  A
C1875      N1880   1.359       .  A
N1876      C1877   1.358       .  A
C1877      C1948   1.437       .  S
C1877      N1878   1.359       .  A
N1878      C1879   1.358       .  A
C1879      C1885   1.440       .  S
C1879      N1880   1.358       .  A
C1881      C1882   1.208       .  T
C1883      C1884   1.209       .  T
C1885      C1886   1.209       .  T
C1887      C1888   1.209       .  T
C1889      C1890   1.208       .  T
C1891      C1892   1.209       .  T
C1893      C1894   1.206       .  T
C1895      C1896   1.206       .  T
C1897      C1898   1.206       .  T
C1899      C1900   1.206       .  T
C1901      C1902   1.206       .  T
C1903      C1904   1.206       .  T
C1905      C1906   1.204       .  T
C1907      C1908   1.204       .  T
C1909      C1910   1.204       .  T
C1911      C1912   1.205       .  T
C1913      C1914   1.204       .  T
C1915      C1916   1.204       .  T
C1917      C1918   1.201       .  T
C1919      C1920   1.201       .  T
C1921      C1922   1.201       .  T
C1923      C1924   1.201       .  T
C1925      C1926   1.201       .  T
C1927      C1928   1.201       .  T
C1929      C1930   1.206       .  T
C1931      C1932   1.204       .  T
C1933      C1934   1.206       .  T
C1935      C1936   1.206       .  T
C1937      C1938   1.204       .  T
C1939      C1940   1.204       .  T
C1941      C1942   1.206       .  T
C1943      C1944   1.204       .  T
C1945      C1946   1.206       .  T
C1947      C1948   1.206       .  T
C1949      C1950   1.204       .  T
C1951      C1952   1.204       .  T
