geometry optimzed in LAMMPS
_audit_creation_date              2020-11-30 
_audit_creation_method            'lammps2cif' 
_symmetry_space_group_name_H-M    'P1' 
_symmetry_Int_Tables_number       1 
_symmetry_cell_setting            triclinic 
loop_ 
_symmetry_equiv_pos_as_xyz 
  x,y,z 
_cell_length_a                    35.64740084 
_cell_length_b                    35.990137904153976 
_cell_length_c                    68.64044441646455 
_cell_angle_alpha                 90.6186113015067 
_cell_angle_beta                  88.22188882876607 
_cell_angle_gamma                 91.88194854368527 
loop_ 
_atom_site_label 
_atom_site_type_symbol 
_atom_site_fract_x 
_atom_site_fract_y 
_atom_site_fract_z 
_atom_site_charge 
N1          N  0.41828510  0.25859076  0.35680550    -0.36700
N2          N  0.42235738  0.20681619  0.38885453    -0.57300
N3          N  0.40115962  0.26394888  0.41744434    -0.36700
N4          N  0.40400241  0.34098429  0.38475684    -0.57300
C5          C  0.43108655  0.22919785  0.34663975     0.26900
C6          C  0.41944946  0.28780529  0.34465811     0.26900
C7          C  0.39051506  0.23225236  0.42674162     0.26900
C8          C  0.38262331  0.29229263  0.42595152     0.26900
C9          C  0.44239676  0.18848466  0.37499891     0.35500
C10         C  0.43007972  0.19180352  0.40618432     0.35500
C11         C  0.38993250  0.32928207  0.36761932     0.35500
C12         C  0.37823060  0.32962883  0.39846157     0.35500
C13         C  0.43859896  0.23976580  0.32737999    -0.22000
C14         C  0.43233720  0.27725527  0.32633394    -0.22000
C15         C  0.36322840  0.24053394  0.44097359    -0.22000
C16         C  0.35836495  0.27869921  0.44051760    -0.22000
C17         C  0.46366120  0.16196474  0.38358464    -0.23100
C18         C  0.45657118  0.16467883  0.40341681    -0.23100
C19         C  0.35610918  0.30985865  0.37047833    -0.23100
C20         C  0.34888056  0.30968242  0.39007699    -0.23100
C21         C  0.44118658  0.19497506  0.35469751    -0.18400
C22         C  0.41250640  0.32408814  0.35101106    -0.18400
C23         C  0.38500778  0.32871393  0.41840206    -0.18400
C24         C  0.40779178  0.19746272  0.42338966    -0.18400
H25         H  0.45009321  0.22300993  0.31560069     0.14500
H26         H  0.43726175  0.29479217  0.31374011     0.14500
H27         H  0.34870206  0.22125503  0.45081616     0.14500
H28         H  0.33881261  0.29439069  0.44942964     0.14500
H29         H  0.48223575  0.14267107  0.37632300     0.12800
H30         H  0.46749875  0.14695258  0.41439553     0.12800
H31         H  0.34039552  0.29443871  0.35963311     0.12800
H32         H  0.32593384  0.29472688  0.39755088     0.12800
H33         H  0.41173959  0.26028311  0.37162784     0.26000
H34         H  0.42211280  0.26719116  0.40657912     0.26000
N35         N  0.18705932  0.24824200  0.35856235    -0.36700
N36         N  0.19997440  0.30626447  0.38770323    -0.57300
N37         N  0.21210141  0.25016099  0.41726453    -0.36700
N38         N  0.19994373  0.19240665  0.38738892    -0.57300
C39         C  0.18685938  0.27852589  0.34701823     0.26900
C40         C  0.18677172  0.21768566  0.34684744     0.26900
C41         C  0.22611815  0.28136222  0.42604497     0.26900
C42         C  0.22744175  0.22049930  0.42565096     0.26900
C43         C  0.18721309  0.32732563  0.37324609     0.35500
C44         C  0.19948081  0.32760515  0.40404836     0.35500
C45         C  0.18955425  0.16933513  0.37268532     0.35500
C46         C  0.20185662  0.17122164  0.40342662     0.35500
C47         C  0.18574901  0.26707586  0.32769373    -0.22000
C48         C  0.18551410  0.22885674  0.32757894    -0.22000
C49         C  0.25001601  0.27135383  0.44053156    -0.22000
C50         C  0.25091417  0.23296663  0.44025670    -0.22000
C51         C  0.17873520  0.36229078  0.38044172    -0.23100
C52         C  0.18608231  0.36233649  0.39995899    -0.23100
C53         C  0.18526878  0.13322671  0.37942217    -0.23100
C54         C  0.19202096  0.13456479  0.39892953    -0.23100
C55         C  0.18441122  0.31601960  0.35346433    -0.18400
C56         C  0.18553936  0.18000965  0.35305757    -0.18400
C57         C  0.22003805  0.18256149  0.42065631    -0.18400
C58         C  0.21686114  0.31843811  0.42159595    -0.18400
H59         H  0.18430013  0.28438501  0.31496282     0.14500
H60         H  0.18385573  0.21142892  0.31468124     0.14500
H61         H  0.26531076  0.28979257  0.45024180     0.14500
H62         H  0.26706061  0.21617469  0.44970621     0.14500
H63         H  0.16865410  0.38551696  0.37244624     0.12800
H64         H  0.18344510  0.38581294  0.40984002     0.12800
H65         H  0.17856436  0.10826509  0.37115094     0.12800
H66         H  0.19215052  0.11076928  0.40843723     0.12800
H67         H  0.18355542  0.24839054  0.37357306     0.26000
H68         H  0.19091778  0.24908155  0.40716690     0.26000
O69         O  0.37347185  0.46239541  0.48554193    -0.80300
O70         O  0.36206850  0.04468612  0.52005486    -0.80300
O71         O  0.35537732  0.04535690  0.47238283    -0.80300
O72         O  0.31162970  0.46265124  0.54465345    -0.80200
O73         O  0.34491758  0.09302644  0.49197452    -0.80400
O74         O  0.36057456  0.45375548  0.52568312    -0.80300
O75         O  0.31721218  0.03436125  0.54190700    -0.80300
O76         O  0.33947460  0.47430453  0.46086404    -0.80300
C77         C  0.36749301  0.45838482  0.46764186     1.09400
C78         C  0.34856538  0.05015580  0.53718021     1.09300
C79         C  0.36148106  0.08043080  0.47702517     1.09500
C80         C  0.34286460  0.44736918  0.54163891     1.09300
O81         O  0.28974552  0.41893960  0.51808896    -0.80300
O82         O  0.28215943  0.05935877  0.47948729    -0.80300
O83         O  0.26263086  0.47203446  0.47396015    -0.80300
O84         O  0.24675459  0.03295242  0.52115090    -0.80200
O85         O  0.29117524  0.07470594  0.51712606    -0.80300
O86         O  0.30034632  0.42598771  0.47940349    -0.80300
O87         O  0.24546772  0.45941524  0.52241173    -0.80200
O88         O  0.29365371  0.02955517  0.45184375    -0.80300
Co89       Co  0.33090811  0.44410044  0.50221674     1.51500
Co90       Co  0.32448579  0.04669045  0.49931720     1.51700
Co91       Co  0.30696675  0.00791664  0.47536984     1.51600
Co92       Co  0.28280961  0.99539629  0.53006927     1.51500
O93         O  0.31086087  0.99290992  0.50352331    -1.42200
C94         C  0.25612408  0.42613579  0.52300320     1.09400
C95         C  0.27903533  0.05666556  0.46072384     1.09500
C96         C  0.27103126  0.43807916  0.47178972     1.09400
C97         C  0.25745534  0.06680070  0.52159699     1.09400
N98         N  0.39182979  0.24953846  0.58971572    -0.36700
N99         N  0.38856226  0.30472217  0.62178931    -0.57300
N100        N  0.40715589  0.24842429  0.64954440    -0.36700
N101        N  0.41095308  0.19316408  0.61759865    -0.57300
C102        C  0.37841296  0.27888889  0.58010889     0.26900
C103        C  0.38642248  0.21848878  0.57848816     0.26900
C104        C  0.41186077  0.27924340  0.66087101     0.26900
C105        C  0.42348518  0.22035075  0.65870699     0.26900
C106        C  0.38215332  0.32749680  0.60680018     0.35500
C107        C  0.38844348  0.32629533  0.63810006     0.35500
C108        C  0.40925220  0.17103907  0.60157865     0.35500
C109        C  0.42129906  0.17147587  0.63232726     0.35500
C110        C  0.36562054  0.26655871  0.56221396    -0.22000
C111        C  0.37037260  0.22858758  0.56126538    -0.22000
C112        C  0.43024821  0.27018323  0.67760440    -0.22000
C113        C  0.43703117  0.23311271  0.67638800    -0.22000
C114        C  0.37804854  0.36359838  0.61377271    -0.23100
C115        C  0.38046177  0.36249201  0.63352811    -0.23100
C116        C  0.41898401  0.13521975  0.60620859    -0.23100
C117        C  0.42664465  0.13553615  0.62562140    -0.23100
C118        C  0.37695512  0.31643459  0.58707895    -0.18400
C119        C  0.39519846  0.18124244  0.58333053    -0.18400
C120        C  0.42783937  0.18362691  0.65160233    -0.18400
C121        C  0.40128686  0.31574173  0.65649365    -0.18400
H122        H  0.35354216  0.28311981  0.55109252     0.14500
H123        H  0.36289202  0.21045769  0.54921803     0.14500
H124        H  0.43878256  0.28842561  0.68940096     0.14500
H125        H  0.45153137  0.21769831  0.68713663     0.14500
H126        H  0.37329024  0.38844392  0.60560679     0.12800
H127        H  0.37890066  0.38628454  0.64326137     0.12800
H128        H  0.41985390  0.11109897  0.59667087     0.12800
H129        H  0.43512580  0.11191927  0.63386177     0.12800
H130        H  0.40579021  0.25125953  0.60273044     0.26000
H131        H  0.39213496  0.24607703  0.63685965     0.26000
N132        N  0.18796520  0.24285323  0.63812175    -0.36700
N133        N  0.19577152  0.18811465  0.60746935    -0.57300
N134        N  0.19302366  0.24599616  0.57929356    -0.36700
N135        N  0.18509398  0.30152520  0.60946669    -0.57300
C136        C  0.17743946  0.21083506  0.64720958     0.26900
C137        C  0.17325732  0.27083979  0.64880042     0.26900
C138        C  0.18856099  0.21552499  0.56774933     0.26900
C139        C  0.18417766  0.27590125  0.56881616     0.26900
C140        C  0.20430566  0.16782610  0.62301143     0.35500
C141        C  0.20719257  0.16893065  0.59155520     0.35500
C142        C  0.18812103  0.32229892  0.62589882     0.35500
C143        C  0.19328099  0.32438590  0.59430918     0.35500
C144        C  0.15548017  0.21854504  0.66368153    -0.22000
C145        C  0.15359019  0.25641765  0.66495359    -0.22000
C146        C  0.17601952  0.22610388  0.54977739    -0.22000
C147        C  0.17332873  0.26427633  0.55043531    -0.22000
C148        C  0.22175284  0.13566037  0.61704076    -0.23100
C149        C  0.22318614  0.13620138  0.59700429    -0.23100
C150        C  0.19742773  0.35882818  0.62124315    -0.23100
C151        C  0.20120999  0.36007467  0.60122392    -0.23100
C152        C  0.19011782  0.17527434  0.64191883    -0.18400
C153        C  0.17865451  0.30907518  0.64476244    -0.18400
C154        C  0.19194069  0.31334893  0.57440636    -0.18400
C155        C  0.20037182  0.17948164  0.57230066    -0.18400
H156        H  0.14291441  0.19903516  0.67405349     0.14500
H157        H  0.13928073  0.27134009  0.67657360     0.14500
H158        H  0.17108834  0.20837456  0.53721756     0.14500
H159        H  0.16606643  0.28171691  0.53846120     0.14500
H160        H  0.23045740  0.11329105  0.62611301     0.12800
H161        H  0.23364435  0.11449565  0.58753487     0.12800
H162        H  0.20087885  0.38211298  0.63120640     0.12800
H163        H  0.20825327  0.38464593  0.59279617     0.12800
H164        H  0.20749045  0.24580826  0.62658584     0.26000
H165        H  0.20757447  0.24713823  0.59219222     0.26000
C166        C  0.48968505  0.09734528  0.29132952     0.42300
N167        N  0.02582907  0.07242542  0.26901410     0.01200
C168        C  0.01005152  0.41328604  0.21695683    -0.06600
H169        H  0.02850522  0.38834184  0.28961470     0.06700
C170        C  0.15788523  0.45474318  0.28500588    -0.07000
Co171      Co  0.50096331  0.49805319  0.25366205     0.74200
N172        N  0.02437011  0.43941433  0.27397580    -0.26200
Co173      Co  0.06413495  0.43572933  0.25094279     0.74100
C174        C  0.14218029  0.42002709  0.29389825     0.42400
N175        N  0.13368026  0.04537980  0.26662404     0.00800
N176        N  0.10705820  0.43692316  0.27080694     0.01000
N177        N  0.46909974  0.44718334  0.22238205    -0.47000
H178        H  0.45271567  0.04295977  0.29118179     0.06700
N179        N  0.00086790  0.46688832  0.27572705     0.01200
N180        N  0.10603672  0.43251467  0.22868698     0.01000
C181        C  0.14843874  0.41102176  0.20880504     0.42600
N182        N  0.10914257  0.07175308  0.26481707    -0.25600
C183        C  0.46540437  0.04925028  0.21260484    -0.06600
N184        N  0.02410485  0.10038180  0.28173491    -0.46700
N185        N  0.11386984  0.40367027  0.21708682    -0.47000
C186        C  0.48002582  0.07828028  0.19980090     0.42400
N187        N  0.99385853  0.46154524  0.23372080     0.01200
N188        N  0.10413252  0.06038708  0.22291942    -0.25700
N189        N  0.00063069  0.04564905  0.27285343    -0.26100
N190        N  0.13035286  0.03534604  0.22396789     0.00900
H191        H  0.09267433  0.10185713  0.20151843     0.06800
H192        H  0.18940484  0.45948741  0.21594356     0.06800
N193        N  0.01998855  0.43664525  0.23145446    -0.26200
N194        N  0.13404554  0.46302577  0.27081189    -0.25800
N195        N  0.01923322  0.06109764  0.22643840     0.01200
C196        C  0.49456763  0.42938261  0.30299388     0.42600
C197        C  0.11781935  0.09941910  0.27717825    -0.07100
N198        N  0.13377172  0.45771177  0.22869010    -0.25800
H199        H  0.18338355  0.47035227  0.28828408     0.06800
N200        N  0.48328653  0.45936851  0.29317287    -0.47000
H201        H  0.10353949  0.12526801  0.27849678     0.06800
C202        C  0.14118421  0.06194052  0.19632025     0.42500
C203        C  0.47447185  0.06080354  0.28465731    -0.06600
Co204      Co  0.06470877  0.06738821  0.24555769     0.73800
N205        N  0.15873761  0.05335924  0.28009818    -0.46700
C206        C  0.47488220  0.41471816  0.21303247     0.42700
N207        N  0.01158493  0.07974427  0.21040691    -0.46700
Co208      Co  0.13255434  0.99922462  0.24805031     0.73900
C209        C  0.16169528  0.44636243  0.21695529    -0.07100
C210        C  0.01658784  0.41540986  0.28839019    -0.06600
N211        N  0.99288753  0.03571989  0.23072230    -0.26200
N212        N  0.11107025  0.41114066  0.28404002    -0.46900
H213        H  0.02775095  0.39173577  0.21129781     0.06700
C214        C  0.10907686  0.07895243  0.20611067    -0.07000
Cl215      Cl  0.06735124  0.50383980  0.24971842    -0.50000
C216        C  0.15051592  0.08728464  0.28732931     0.42500
H217        H  0.44042529  0.03166796  0.21127287     0.06700
N218        N  0.15310557  0.03546565  0.20830160    -0.46800
O219        O  0.51431170  0.18914284  0.97589583    -0.80300
O220        O  0.16023638  0.22522748  0.00307871    -0.80300
O221        O  0.09971137  0.24993374  0.95538264    -0.80300
O222        O  0.04242114  0.22225448  0.03923551    -0.80200
O223        O  0.11092801  0.20575841  0.97547378    -0.80400
O224        O  0.53692808  0.18493770  0.01420170    -0.80300
O225        O  0.11372189  0.21496247  0.02452993    -0.80300
O226        O  0.02396914  0.23575765  0.95505670    -0.80300
C227        C  0.00909385  0.20503558  0.96041312     1.09400
C228        C  0.14858054  0.21060771  0.01893769     1.09300
C229        C  0.11639695  0.22023149  0.95886993     1.09500
C230        C  0.53133890  0.18917193  0.03211400     1.09300
O231        O  0.48991234  0.24990417  0.02352250    -0.80300
O232        O  0.13661046  0.28414314  0.98009396    -0.80300
O233        O  0.00916805  0.30138055  0.97521197    -0.80300
O234        O  0.09778421  0.27697183  0.04530632    -0.80200
O235        O  0.12656916  0.28610854  0.01681675    -0.80300
O236        O  0.47285654  0.25078028  0.98587516    -0.80300
O237        O  0.03502445  0.29681036  0.02569773    -0.80200
O238        O  0.08618953  0.31705479  0.97829511    -0.80300
Co239      Co  0.00822908  0.22119586  0.99993158     1.51500
Co240      Co  0.11295311  0.24301128  0.99692619     1.51700
Co241      Co  0.05544583  0.27508060  0.96804544     1.51600
Co242      Co  0.07416026  0.25837707  0.02272004     1.51500
O243        O  0.05746548  0.25033394  0.99496268    -1.42200
C244        C  0.00137519  0.28510616  0.02912617     1.09400
C245        C  0.12138478  0.31494523  0.97670068     1.09500
C246        C  0.97862930  0.28229069  0.97562260     1.09400
C247        C  0.12580239  0.29020417  0.03552117     1.09400
N248        N  0.35431403  0.34950649  0.89196440    -0.36700
N249        N  0.30591266  0.39627359  0.86868955    -0.57300
N250        N  0.24603930  0.39240291  0.89661021    -0.36700
N251        N  0.28992097  0.34190014  0.92014282    -0.57300
C252        C  0.36416202  0.34639263  0.87281323     0.26900
C253        C  0.35213583  0.31464108  0.89928516     0.26900
C254        C  0.22866828  0.39175944  0.87939623     0.26900
C255        C  0.22345696  0.37338962  0.90927125     0.26900
C256        C  0.33877289  0.40181198  0.85899200     0.35500
C257        C  0.28096019  0.41729014  0.85998833     0.35500
C258        C  0.31920509  0.32744224  0.92940109     0.35500
C259        C  0.26612032  0.35661134  0.93383695     0.35500
C260        C  0.36615997  0.30934936  0.86758230    -0.22000
C261        C  0.35674123  0.28954634  0.88424691    -0.22000
C262        C  0.19527999  0.37121682  0.88091309    -0.22000
C263        C  0.19247909  0.35875177  0.89976454    -0.22000
C264        C  0.33551308  0.42873374  0.84482994    -0.23100
C265        C  0.29829655  0.43804366  0.84522974    -0.23100
C266        C  0.31471405  0.33546707  0.94912737    -0.23100
C267        C  0.28068588  0.35146369  0.95199515    -0.23100
C268        C  0.36762823  0.37639917  0.85983207    -0.18400
C269        C  0.34785543  0.30648893  0.91939781    -0.18400
C270        C  0.23060961  0.37117344  0.92925790    -0.18400
C271        C  0.24237840  0.41030116  0.86266371    -0.18400
H272        H  0.37074518  0.29782758  0.85312963     0.14500
H273        H  0.34960093  0.26074440  0.88485212     0.14500
H274        H  0.17526103  0.36560817  0.86962996     0.14500
H275        H  0.16959913  0.34191167  0.90581879     0.14500
H276        H  0.35652716  0.43765465  0.83400451     0.12800
H277        H  0.28500926  0.45568285  0.83498511     0.12800
H278        H  0.33270314  0.33027760  0.96098576     0.12800
H279        H  0.26888051  0.35662335  0.96625699     0.12800
H280        H  0.35177780  0.37434436  0.89985450     0.26000
H281        H  0.27032174  0.40773120  0.90016707     0.26000
N282        N  0.31941421  0.17397590  0.84537369    -0.36700
N283        N  0.26124193  0.16860165  0.87574636    -0.57300
N284        N  0.31488530  0.19911427  0.90439744    -0.36700
N285        N  0.37417524  0.19831085  0.87466198    -0.57300
C286        C  0.29129855  0.15901421  0.83465242     0.26900
C287        C  0.35164116  0.17066480  0.83466991     0.26900
C288        C  0.28546677  0.18693475  0.91595462     0.26900
C289        C  0.34604550  0.20033557  0.91542962     0.26900
C290        C  0.23997650  0.15837338  0.86046910     0.35500
C291        C  0.23727735  0.17245539  0.89120766     0.35500
C292        C  0.39724897  0.19693983  0.85870485     0.35500
C293        C  0.39466286  0.21318398  0.88925790     0.35500
C294        C  0.30556745  0.14886180  0.81639366    -0.22000
C295        C  0.34363075  0.15550714  0.81654685    -0.22000
C296        C  0.29782728  0.18017971  0.93439527    -0.22000
C297        C  0.33611106  0.18738495  0.93385667    -0.22000
C298        C  0.20261842  0.15421551  0.86652743    -0.23100
C299        C  0.20082046  0.16378083  0.88585767    -0.23100
C300        C  0.43251118  0.21134851  0.86301010    -0.23100
C301        C  0.43075726  0.22224199  0.88221897    -0.23100
C302        C  0.25349997  0.15228324  0.84110486    -0.18400
C303        C  0.38844088  0.17899998  0.84096513    -0.18400
C304        C  0.38317805  0.21254229  0.90935860    -0.18400
C305        C  0.24760199  0.18219281  0.91035989    -0.18400
H306        H  0.29048159  0.13642624  0.80440439     0.14500
H307        H  0.36324177  0.14936464  0.80468517     0.14500
H308        H  0.28117734  0.17018629  0.94682508     0.14500
H309        H  0.35440153  0.18395026  0.94587214     0.14500
H310        H  0.17889208  0.14557716  0.85792957     0.12800
H311        H  0.17554138  0.16355308  0.89500745     0.12800
H312        H  0.45722665  0.21280265  0.85345131     0.12800
H313        H  0.45428690  0.23278876  0.89043899     0.12800
H314        H  0.31701706  0.18535457  0.85899112     0.26000
H315        H  0.31274304  0.20887940  0.89038974     0.26000
C316        C  0.46144482  0.41234217  0.71499276     0.42300
N317        N  0.48182308  0.45706513  0.73343961     0.01200
C318        C  0.15370089  0.05936721  0.71972635    -0.06600
H319        H  0.16958498  0.41058292  0.73467580     0.06700
C320        C  0.09813333  0.43683519  0.80372307    -0.07000
Co321      Co  0.05966970  0.49032987  0.71729254     0.74200
N322        N  0.12252157  0.44616617  0.73179826    -0.26200
Co323      Co  0.12764247  0.48998392  0.75188886     0.74100
C324        C  0.13642222  0.42417964  0.80121574     0.42400
N325        N  0.01053512  0.46498209  0.78787888     0.00800
N326        N  0.12150876  0.45455334  0.77579246     0.01000
N327        N  0.10496469  0.05856036  0.69949944    -0.47000
H328        H  0.02379458  0.41640693  0.69543832     0.06700
N329        N  0.09619084  0.44735112  0.71880240     0.01200
N330        N  0.12631828  0.04167965  0.76945836     0.01000
C331        C  0.14635756  0.08541896  0.78838615     0.42600
N332        N  0.48467158  0.47099740  0.77688674    -0.25600
C333        C  0.01242137  0.06217192  0.70133596    -0.06600
N334        N  0.45117785  0.43660424  0.72938318    -0.46700
N335        N  0.15479815  0.06552194  0.77213624    -0.47000
C336        C  0.49271754  0.08629690  0.70671994     0.42400
N337        N  0.09885881  0.03530532  0.71401646     0.01200
N338        N  0.49779085  0.05142482  0.77210098    -0.25700
N339        N  0.01392813  0.45341768  0.71940137    -0.26100
N340        N  0.01652663  0.04640288  0.78388657     0.00900
H341        H  0.45253653  0.08798493  0.76708830     0.06800
H342        H  0.09565936  0.07685711  0.80954981     0.06800
N343        N  0.12660877  0.03536244  0.72622844    -0.26200
N344        N  0.09252418  0.45742013  0.78806046    -0.25800
N345        N  0.49955888  0.04578243  0.72892930     0.01200
C346        C  0.12901610  0.40130437  0.70915136     0.42600
C347        C  0.45775162  0.44722284  0.78369902    -0.07100
N348        N  0.09966427  0.04424482  0.78311599    -0.25800
H349        H  0.08065011  0.43702676  0.81688001     0.06800
N350        N  0.09927733  0.42157364  0.70518947    -0.47000
H351        H  0.43063176  0.44268642  0.77730786     0.06800
C352        C  0.49327404  0.10069075  0.79179191     0.42500
C353        C  0.00531555  0.42602368  0.70702246    -0.06600
Co354      Co  0.48756671  0.50384690  0.75198215     0.73800
N355        N  0.00339868  0.44068766  0.80188665    -0.46700
C356        C  0.13908336  0.07471621  0.70185706     0.42700
N357        N  0.47785513  0.07308925  0.72382287    -0.46700
Co358      Co  0.05670657  0.50156782  0.78674327     0.73900
C359        C  0.10977981  0.07119401  0.79571226    -0.07100
C360        C  0.14473278  0.41761481  0.72706989    -0.06600
N361        N  0.01642408  0.03643991  0.71489013    -0.26200
N362        N  0.14852977  0.43524851  0.78323257    -0.46900
H363        H  0.18130096  0.06275492  0.72572484     0.06700
C364        C  0.47744820  0.08172318  0.77486859    -0.07000
Cl365      Cl  0.05815152  0.49603919  0.75191174    -0.50000
C366        C  0.47204330  0.43278826  0.80191417     0.42500
H367        H  0.02925693  0.06500349  0.68802197     0.06700
N368        N  0.01441053  0.07543251  0.79578438    -0.46800
N369        N  0.31632847  0.09023630  0.12867518    -0.36700
N370        N  0.37765175  0.10245403  0.10076967    -0.57300
N371        N  0.32722227  0.13035681  0.07217547    -0.36700
N372        N  0.26501980  0.11822042  0.10039175    -0.57300
C373        C  0.34574780  0.08677176  0.14055931     0.26900
C374        C  0.28458960  0.09090429  0.14001443     0.26900
C375        C  0.36103754  0.14349400  0.06518993     0.26900
C376        C  0.30049660  0.15131290  0.06457478     0.26900
C377        C  0.39704064  0.08739181  0.11509524     0.35500
C378        C  0.40101819  0.10429001  0.08499203     0.35500
C379        C  0.23942503  0.10551356  0.11399024     0.35500
C380        C  0.24588710  0.12591560  0.08422010     0.35500
C381        C  0.33236693  0.08359239  0.15963936    -0.22000
C382        C  0.29391201  0.08555979  0.15928583    -0.22000
C383        C  0.35574230  0.17283929  0.05275045    -0.22000
C384        C  0.31751197  0.17780447  0.05237295    -0.22000
C385        C  0.43279852  0.07900106  0.10827992    -0.23100
C386        C  0.43486256  0.08844019  0.08903004    -0.23100
C387        C  0.20379447  0.10577731  0.10645094    -0.23100
C388        C  0.20798574  0.11748283  0.08752188    -0.23100
C389        C  0.38428850  0.08524711  0.13469416    -0.18400
C390        C  0.24745005  0.09545221  0.13342462    -0.18400
C391        C  0.26116299  0.14574290  0.06777658    -0.18400
C392        C  0.39631399  0.12888769  0.06948027    -0.18400
H393        H  0.34855765  0.07961272  0.17249041     0.14500
H394        H  0.27518304  0.08340543  0.17194299     0.14500
H395        H  0.37716550  0.18897290  0.04477669     0.14500
H396        H  0.30380107  0.19846432  0.04401634     0.14500
H397        H  0.45568262  0.06859613  0.11638560     0.12800
H398        H  0.45983921  0.08738817  0.07968391     0.12800
H399        H  0.17730755  0.09855584  0.11377594     0.12800
H400        H  0.18532744  0.12113482  0.07765868     0.12800
H401        H  0.31733038  0.08971543  0.11359207     0.26000
H402        H  0.32239074  0.10630688  0.08028957     0.26000
N403        N  0.31139523  0.33540705  0.14919199    -0.36700
N404        N  0.36850868  0.34144108  0.11845206    -0.57300
N405        N  0.31289601  0.32543045  0.08996121    -0.36700
N406        N  0.25540184  0.31319162  0.12198913    -0.57300
C407        C  0.34244552  0.34063066  0.15980540     0.26900
C408        C  0.28253953  0.32670487  0.16176086     0.26900
C409        C  0.34469438  0.31208921  0.08144844     0.26900
C410        C  0.28351077  0.30596147  0.08258817     0.26900
C411        C  0.38695671  0.35958734  0.13270275     0.35500
C412        C  0.38857260  0.34732447  0.10170474     0.35500
C413        C  0.23276662  0.31319256  0.13815042     0.35500
C414        C  0.23275554  0.30896120  0.10667467     0.35500
C415        C  0.33330826  0.33403920  0.17932632    -0.22000
C416        C  0.29529488  0.32610980  0.18057815    -0.22000
C417        C  0.33536829  0.28294385  0.06895180    -0.22000
C418        C  0.29661174  0.27849751  0.07002767    -0.22000
C419        C  0.41884290  0.37780087  0.12491083    -0.23100
C420        C  0.42001887  0.36972808  0.10521609    -0.23100
C421        C  0.19595595  0.30564416  0.13329193    -0.23100
C422        C  0.19610027  0.30158163  0.11336496    -0.23100
C423        C  0.37711399  0.35660694  0.15276922    -0.18400
C424        C  0.24438867  0.32386408  0.15691356    -0.18400
C425        C  0.24538949  0.31341325  0.08699209    -0.18400
C426        C  0.38138886  0.32720238  0.08438680    -0.18400
H427        H  0.35165989  0.33686989  0.19156059     0.14500
H428        H  0.27877668  0.32131506  0.19385469     0.14500
H429        H  0.35443077  0.26664812  0.06005222     0.14500
H430        H  0.27986843  0.25818086  0.06207819     0.14500
H431        H  0.43984154  0.39388408  0.13270517     0.12800
H432        H  0.44213077  0.37801221  0.09484488     0.12800
H433        H  0.17158573  0.30376428  0.14308032     0.12800
H434        H  0.17167495  0.29496649  0.10488295     0.12800
H435        H  0.30884675  0.34348629  0.13483854     0.26000
H436        H  0.31077768  0.34887734  0.09896927     0.26000
C437        C  0.19845252  0.15697118  0.81915163    -0.02000
C438        C  0.22673499  0.13547897  0.82690420     0.07700
C439        C  0.22929014  0.09768866  0.82144637    -0.02100
C440        C  0.20469275  0.08193926  0.80777580    -0.02100
C441        C  0.17504041  0.10287687  0.80092757     0.07800
C442        C  0.17173103  0.14025221  0.80686572    -0.02300
Br443      Br  0.13062748  0.16861530  0.79803111    -0.00800
Br444      Br  0.19621520  0.20924773  0.82551922    -0.00900
Br445      Br  0.21193108  0.03156012  0.79876973    -0.00900
Br446      Br  0.26591446  0.06709148  0.83312987    -0.00800
C447        C  0.42674013  0.12388535  0.83364941    -0.02000
C448        C  0.41944057  0.16130064  0.82973063     0.07700
C449        C  0.43793893  0.17943048  0.81392215    -0.02100
C450        C  0.46301083  0.15976620  0.80171642    -0.02100
C451        C  0.47005125  0.12228357  0.80557976     0.07800
C452        C  0.45208217  0.10444882  0.82167923    -0.02300
Br453      Br  0.45922194  0.05239485  0.82648918    -0.00800
Br454      Br  0.39957888  0.09825306  0.85459687    -0.00900
Br455      Br  0.48661540  0.18353094  0.77924975    -0.00900
Br456      Br  0.42725946  0.23039290  0.80855926    -0.00800
C457        C  0.21591252  0.38977396  0.83085516    -0.02000
C458        C  0.21675700  0.41557765  0.84641055     0.07700
C459        C  0.19082582  0.44409271  0.84754947    -0.02100
C460        C  0.16343899  0.44665016  0.83333433    -0.02100
C461        C  0.16297793  0.42107559  0.81732509     0.07800
C462        C  0.18976528  0.39307948  0.81611820    -0.02300
Br463      Br  0.19000176  0.35823335  0.79452805    -0.00800
Br464      Br  0.24914809  0.34845238  0.83041900    -0.00900
Br465      Br  0.12864615  0.48675177  0.83620385    -0.00900
Br466      Br  0.19341902  0.47987192  0.86872600    -0.00800
C467        C  0.39630472  0.37050583  0.82605065    -0.02000
C468        C  0.40001111  0.38038355  0.84581624     0.07700
C469        C  0.43143104  0.40188545  0.85156838    -0.02100
C470        C  0.45637569  0.41786530  0.83746226    -0.02100
C471        C  0.45057316  0.41112508  0.81729359     0.07800
C472        C  0.42234553  0.38464614  0.81193243    -0.02300
Br473      Br  0.41989743  0.36584709  0.78552949    -0.00800
Br474      Br  0.35384040  0.34003157  0.81811770    -0.00900
Br475      Br  0.49625010  0.45070269  0.84661753    -0.00900
Br476      Br  0.43803572  0.41212262  0.87898801    -0.00800
C477        C  0.20791372  0.18849837  0.06244213    -0.02000
C478        C  0.23428602  0.16382532  0.05448325     0.07700
C479        C  0.23238339  0.15417605  0.03448421    -0.02100
C480        C  0.20451640  0.16920313  0.02283064    -0.02100
C481        C  0.17570071  0.19093556  0.03138279     0.07800
C482        C  0.17682205  0.19832354  0.05171103    -0.02300
Br483      Br  0.13549526  0.21892040  0.06619932    -0.00800
Br484      Br  0.21503522  0.21013700  0.08807132    -0.00900
Br485      Br  0.20511230  0.15781906  0.99530981    -0.00900
Br486      Br  0.26754063  0.12003158  0.02292378    -0.00800
C487        C  0.47644670  0.14193817  0.03194440    -0.02000
C488        C  0.50189614  0.16545615  0.04243131     0.07700
C489        C  0.49405357  0.17198456  0.06232354    -0.02100
C490        C  0.45793117  0.16437399  0.07024621    -0.02100
C491        C  0.43137308  0.14352398  0.05941677     0.07800
C492        C  0.44156351  0.13065281  0.04063203    -0.02300
Br493      Br  0.40799257  0.09663978  0.02715549    -0.00800
Br494      Br  0.48930792  0.12202808  0.00641130    -0.00900
Br495      Br  0.44533799  0.18192467  0.09622576    -0.00900
Br496      Br  0.04365660  0.18203003  0.07892592    -0.00800
C497        C  0.18283926  0.33746381  0.07492983    -0.02000
C498        C  0.21780975  0.32075480  0.07103734     0.07700
C499        C  0.22577575  0.31302507  0.05122020    -0.02100
C500        C  0.19618579  0.30317554  0.03896618    -0.02100
C501        C  0.15836363  0.30814074  0.04554522     0.07800
C502        C  0.15252982  0.32956085  0.06262608    -0.02300
Br503      Br  0.10425464  0.35059445  0.06818863    -0.00800
Br504      Br  0.17879909  0.37685509  0.09416333    -0.00900
Br505      Br  0.21055299  0.28476479  0.01348671    -0.00900
Br506      Br  0.27187420  0.33220005  0.03894147    -0.00800
C507        C  0.44446072  0.32208710  0.03781365    -0.02000
C508        C  0.47427809  0.30098073  0.04415272     0.07700
C509        C  0.47563853  0.29270720  0.06410199    -0.02100
C510        C  0.44496991  0.29973532  0.07692818    -0.02100
C511        C  0.41360886  0.31869531  0.07039115     0.07800
C512        C  0.41430919  0.33104181  0.05083485    -0.02300
Br513      Br  0.37463670  0.36108671  0.04193662    -0.00800
Br514      Br  0.44744803  0.34214338  0.01193555    -0.00900
Br515      Br  0.44564713  0.28108819  0.10319177    -0.00900
Br516      Br  0.01157374  0.26912301  0.07377953    -0.00800
C517        C  0.13380418  0.36119972  0.94986354    -0.02000
C518        C  0.14379765  0.34609031  0.96779726     0.07700
C519        C  0.17607130  0.36167615  0.97645948    -0.02100
C520        C  0.20369371  0.37986216  0.96442951    -0.02100
C521        C  0.19909972  0.37901841  0.94416078     0.07800
C522        C  0.16137920  0.38072147  0.93870020    -0.02300
Br523      Br  0.14652753  0.41868310  0.92109403    -0.00800
Br524      Br  0.08349612  0.35718194  0.94073163    -0.00900
Br525      Br  0.23547407  0.41912901  0.97494016    -0.00900
Br526      Br  0.17546566  0.36895000  0.00416278    -0.00800
C527        C  0.45623705  0.29174821  0.93889506    -0.02000
C528        C  0.44613816  0.28451765  0.96188005     0.07700
C529        C  0.40248467  0.27501820  0.96862604    -0.02100
C530        C  0.36953392  0.27376457  0.95281327    -0.02100
C531        C  0.37842957  0.28453173  0.92997030     0.07800
C532        C  0.42302252  0.29194783  0.92305513    -0.02300
Br533      Br  0.43918894  0.31091969  0.89800732    -0.00800
Br534      Br  0.50707106  0.30115172  0.93000150    -0.00900
Br535      Br  0.32057927  0.25525608  0.96183134    -0.00900
Br536      Br  0.38846736  0.26976062  0.99580361    -0.00800
C537        C  0.19678543  0.16380015  0.93567040    -0.02000
C538        C  0.21624580  0.19138272  0.92449717     0.07700
C539        C  0.20051481  0.22647298  0.92290592    -0.02100
C540        C  0.16555055  0.23383729  0.93196526    -0.02100
C541        C  0.14780538  0.20796911  0.94515554     0.07800
C542        C  0.16309386  0.17212166  0.94619588    -0.02300
Br543      Br  0.13542683  0.13268185  0.95966287    -0.00800
Br544      Br  0.21550222  0.11416933  0.93559213    -0.00900
Br545      Br  0.14110361  0.27764375  0.92358569    -0.00900
Br546      Br  0.22654644  0.26422656  0.90718507    -0.00800
C547        C  0.43831829  0.21316897  0.95537035    -0.02000
C548        C  0.47102353  0.19442085  0.94973978     0.07700
C549        C  0.47154418  0.17872079  0.93130477    -0.02100
C550        C  0.43928215  0.18131673  0.92040096    -0.02100
C551        C  0.41429268  0.21188803  0.92379698     0.07800
C552        C  0.41904037  0.23608686  0.94140642    -0.02300
Br553      Br  0.40621471  0.33620242  0.95064699    -0.00800
Br554      Br  0.40959546  0.18685405  0.97525950    -0.00900
Br555      Br  0.42853483  0.13992527  0.90293829    -0.00900
Br556      Br  0.51405163  0.15128204  0.92202997    -0.00800
C557        C  0.46288877  0.37189918  0.18388080    -0.02000
C558        C  0.45056003  0.39998652  0.19710303     0.07700
C559        C  0.41443349  0.41494042  0.19452335    -0.02100
C560        C  0.39262424  0.40307399  0.17880404    -0.02100
C561        C  0.40336378  0.37240999  0.16735592     0.07800
C562        C  0.43798433  0.35609914  0.17035901    -0.02300
Br563      Br  0.45073586  0.31105019  0.15647641    -0.00800
Br564      Br  0.51442373  0.35705869  0.18176143    -0.00900
Br565      Br  0.34738524  0.42869592  0.17292760    -0.00900
Br566      Br  0.39192019  0.45045403  0.21240073    -0.00800
C567        C  0.21346003  0.38224431  0.16653584    -0.02000
C568        C  0.21727537  0.34407176  0.16984101     0.07700
C569        C  0.19707981  0.32698570  0.18547937    -0.02100
C570        C  0.17308867  0.34819433  0.19780599    -0.02100
C571        C  0.17026234  0.38697474  0.19490415     0.07800
C572        C  0.19113709  0.40366367  0.17920685    -0.02300
Br573      Br  0.19080553  0.45625765  0.17457074    -0.00800
Br574      Br  0.23985954  0.40574098  0.14454370    -0.00900
Br575      Br  0.14672032  0.32432641  0.21945055    -0.00900
Br576      Br  0.20343668  0.27491507  0.19019704    -0.00800
C577        C  0.42288152  0.11778056  0.16025229    -0.02000
C578        C  0.41328546  0.08468799  0.14997737     0.07700
C579        C  0.43256500  0.05202052  0.15364667    -0.02100
C580        C  0.45985775  0.05219966  0.16801370    -0.02100
C581        C  0.46554311  0.08374484  0.18008225     0.07800
C582        C  0.44840059  0.11710139  0.17555245    -0.02300
Br583      Br  0.45881455  0.16128487  0.19080725    -0.00800
Br584      Br  0.40042638  0.16386883  0.15359071    -0.00900
Br585      Br  0.96851423  0.99583829  0.17545675    -0.00900
Br586      Br  0.42084086  0.00661996  0.13953293    -0.00800
C587        C  0.16185576  0.05397802  0.16152312    -0.02000
C588        C  0.16270710  0.07520566  0.17880989     0.07700
C589        C  0.18680617  0.10692023  0.17973229    -0.02100
C590        C  0.21116313  0.11591588  0.16375699    -0.02100
C591        C  0.21545698  0.09037542  0.14806185     0.07800
C592        C  0.19038204  0.05917172  0.14705755    -0.02300
Br593      Br  0.19649144  0.02184351  0.12693848    -0.00800
Br594      Br  0.11939295  0.02080105  0.15695235    -0.00900
Br595      Br  0.23962620  0.16247338  0.16372046    -0.00900
Br596      Br  0.18768816  0.13699341  0.20314043    -0.00800
C597        C  0.19871250  0.14847879  0.67509545    -0.02000
C598        C  0.18430241  0.14452563  0.65620338     0.07700
C599        C  0.15999262  0.11391954  0.65199934    -0.02100
C600        C  0.15069791  0.08780901  0.66649054    -0.02100
C601        C  0.15921150  0.09581960  0.68613208     0.07800
C602        C  0.18357795  0.12634484  0.69036784    -0.02300
Br603      Br  0.19245515  0.14160951  0.71690659    -0.00800
Br604      Br  0.23727210  0.18594566  0.68030586    -0.00900
Br605      Br  0.12724537  0.04081508  0.65883586    -0.00900
Br606      Br  0.13492285  0.10947384  0.62743892    -0.00800
C607        C  0.19478646  0.35159014  0.67299354    -0.02000
C608        C  0.16790574  0.33575346  0.66045441     0.07700
C609        C  0.12954461  0.34020080  0.66466034    -0.02100
C610        C  0.11806043  0.35601066  0.68245080    -0.02100
C611        C  0.14434112  0.37537178  0.69416669     0.07800
C612        C  0.18311218  0.37383087  0.68901986    -0.02300
Br613      Br  0.22045525  0.40338489  0.70243780    -0.00800
Br614      Br  0.24730696  0.34237840  0.66824848    -0.00900
Br615      Br  0.06656807  0.34748133  0.69139511    -0.00900
Br616      Br  0.09259055  0.32279716  0.64636531    -0.00800
C617        C  0.42059368  0.13342137  0.67656995    -0.02000
C618        C  0.44417631  0.15700241  0.66506008     0.07700
C619        C  0.48323489  0.15774172  0.66732312    -0.02100
C620        C  0.49871610  0.13622044  0.68175111    -0.02100
C621        C  0.47526269  0.11196012  0.69326684     0.07800
C622        C  0.43607691  0.11032915  0.69042324    -0.02300
Br623      Br  0.40331050  0.07528023  0.70435728    -0.00800
Br624      Br  0.36704079  0.13280734  0.67308730    -0.00900
Br625      Br  0.03303175  0.14888738  0.69377079    -0.00900
Br626      Br  0.51535805  0.18925477  0.65081965    -0.00800
C627        C  0.44851300  0.40020977  0.67999271    -0.02000
C628        C  0.43675201  0.39624802  0.69973642     0.07700
C629        C  0.40712739  0.37062272  0.70438076    -0.02100
C630        C  0.39229145  0.34715264  0.68962800    -0.02100
C631        C  0.41044989  0.34590514  0.67099784     0.07800
C632        C  0.43937365  0.37235574  0.66647097    -0.02300
Br633      Br  0.47012982  0.36845880  0.64286486    -0.00800
Br634      Br  0.47513187  0.44471217  0.67085865    -0.00900
Br635      Br  0.34899226  0.31507067  0.69516393    -0.00900
Br636      Br  0.38850017  0.36611111  0.73089031    -0.00800
C637        C  0.40752514  0.13467969  0.55573783    -0.02000
C638        C  0.38317872  0.14930840  0.57026579     0.07700
C639        C  0.34990236  0.12921841  0.57534209    -0.02100
C640        C  0.34042496  0.09527554  0.56595657    -0.02100
C641        C  0.36351828  0.08125667  0.55026343     0.07800
C642        C  0.39813737  0.10076048  0.54594887    -0.02300
Br643      Br  0.43493498  0.07981479  0.52812850    -0.00800
Br644      Br  0.45426808  0.16110176  0.54970098    -0.00900
Br645      Br  0.29628275  0.06843340  0.57636160    -0.00900
Br646      Br  0.31779951  0.14827699  0.59615137    -0.00800
C647        C  0.38842614  0.39853500  0.55240080    -0.02000
C648        C  0.35299884  0.41543373  0.55451094     0.07700
C649        C  0.32540546  0.39828676  0.56742317    -0.02100
C650        C  0.33199497  0.36386984  0.57618705    -0.02100
C651        C  0.36688024  0.34691763  0.57353463     0.07800
C652        C  0.39508535  0.36460473  0.56178729    -0.02300
Br653      Br  0.44400996  0.34317180  0.55971916    -0.00800
Br654      Br  0.42991889  0.42331745  0.53855795    -0.00900
Br655      Br  0.29468133  0.34146616  0.59397443    -0.00900
Br656      Br  0.27922673  0.42198116  0.57530856    -0.00800
C657        C  0.20078166  0.09108867  0.54115077    -0.02000
C658        C  0.23407391  0.09749473  0.52968864     0.07700
C659        C  0.24993225  0.13408918  0.52919178    -0.02100
C660        C  0.24045774  0.15956641  0.54384199    -0.02100
C661        C  0.20898137  0.15266971  0.55619364     0.07800
C662        C  0.18756236  0.11932589  0.55386793    -0.02300
Br663      Br  0.14139860  0.11188950  0.56892178    -0.00800
Br664      Br  0.17241592  0.04489875  0.53939766    -0.00900
Br665      Br  0.27490220  0.20037441  0.54884976    -0.00900
Br666      Br  0.28349316  0.15102744  0.50817257    -0.00800
C667        C  0.18319650  0.37291828  0.55552454    -0.02000
C668        C  0.20344291  0.34061980  0.55874231     0.07700
C669        C  0.23561518  0.33410794  0.54691687    -0.02100
C670        C  0.24716703  0.35911734  0.53229511    -0.02100
C671        C  0.23239241  0.39522277  0.53213603     0.07800
C672        C  0.19875964  0.40128658  0.54326337    -0.02300
Br673      Br  0.17343412  0.44766916  0.54234036    -0.00800
Br674      Br  0.13428465  0.37800262  0.56791303    -0.00900
Br675      Br  0.28194104  0.34181307  0.51211552    -0.00900
Br676      Br  0.26715287  0.29314672  0.55176284    -0.00800
C677        C  0.20774804  0.14258496  0.32378354    -0.02000
C678        C  0.17937004  0.15016113  0.33798966     0.07700
C679        C  0.14463813  0.13017295  0.33734525    -0.02100
C680        C  0.13775791  0.10491790  0.32200208    -0.02100
C681        C  0.16337647  0.10294900  0.30606071     0.07800
C682        C  0.19919715  0.12030574  0.30737159    -0.02300
Br683      Br  0.23573356  0.11489069  0.28634208    -0.00800
Br684      Br  0.25783310  0.16353047  0.32662676    -0.00900
Br685      Br  0.09433138  0.07136971  0.32316881    -0.00900
Br686      Br  0.10572665  0.13814044  0.35691899    -0.00800
C687        C  0.20275677  0.36166912  0.32659253    -0.02000
C688        C  0.17486693  0.34451276  0.33881992     0.07700
C689        C  0.13719005  0.35339749  0.33683276    -0.02100
C690        C  0.12741834  0.37993991  0.32317128    -0.02100
C691        C  0.15483619  0.39661373  0.31029141     0.07800
C692        C  0.19279064  0.38698040  0.31207407    -0.02300
Br693      Br  0.23085330  0.40516966  0.29369824    -0.00800
Br694      Br  0.25441233  0.34905115  0.32938811    -0.00900
Br695      Br  0.07590080  0.39359764  0.32301401    -0.00900
Br696      Br  0.09858909  0.32787807  0.35256850    -0.00800
C697        C  0.23121974  0.10698460  0.45853886    -0.02000
C698        C  0.26051306  0.08635997  0.44977491     0.07700
C699        C  0.27484548  0.09707496  0.43112133    -0.02100
C700        C  0.26505501  0.13112737  0.42315487    -0.02100
C701        C  0.23651862  0.15220514  0.43211444     0.07800
C702        C  0.21891273  0.13941985  0.44957028    -0.02300
Br703      Br  0.17653706  0.16522949  0.46052302    -0.00800
Br704      Br  0.20386397  0.08785475  0.48114417    -0.00900
Br705      Br  0.28954288  0.14841331  0.39921705    -0.00900
Br706      Br  0.30381296  0.06371118  0.41491376    -0.00800
C707        C  0.26563694  0.40833330  0.43888502    -0.02000
C708        C  0.25084252  0.41257403  0.45803303     0.07700
C709        C  0.22231968  0.38727717  0.46466266    -0.02100
C710        C  0.21149842  0.35618300  0.45305517    -0.02100
C711        C  0.22925736  0.35008007  0.43465927     0.07800
C712        C  0.25629321  0.37663250  0.42764026    -0.02300
Br713      Br  0.28106777  0.36962468  0.40253493    -0.00800
Br714      Br  0.29533060  0.44797107  0.42703632    -0.00900
Br715      Br  0.17181766  0.32241755  0.46215833    -0.00900
Br716      Br  0.19533187  0.39747760  0.48860863    -0.00800
C717        C  0.43952417  0.12047551  0.31533324    -0.02000
C718        C  0.47740441  0.12167749  0.30821093     0.07700
C719        C  0.50296487  0.14782895  0.31696682    -0.02100
C720        C  0.49190690  0.16890735  0.33343467    -0.02100
C721        C  0.45479317  0.16626481  0.34070601     0.07800
C722        C  0.42859660  0.14230822  0.33160972    -0.02300
Br723      Br  0.37667592  0.14211118  0.34066490    -0.00800
Br724      Br  0.40026533  0.09515895  0.30107005    -0.00900
Br725      Br  0.52625933  0.20503812  0.34507968    -0.00900
Br726      Br  0.55172674  0.16029621  0.30571835    -0.00800
C727        C  0.47066628  0.36246865  0.34379160    -0.02000
C728        C  0.43197934  0.35591180  0.34130283     0.07700
C729        C  0.41291371  0.37633169  0.32757731    -0.02100
C730        C  0.43296477  0.40113421  0.31513652    -0.02100
C731        C  0.47189952  0.40767174  0.31746518     0.07800
C732        C  0.49049291  0.38884482  0.33219085    -0.02300
Br733      Br  0.00573756  0.44645299  0.34371755    -0.00800
Br734      Br  0.49672203  0.33410072  0.36259958    -0.00900
Br735      Br  0.40749978  0.42124744  0.29333997    -0.00900
Br736      Br  0.35955947  0.36823675  0.32492828    -0.00800
C737        C  0.40675205  0.17151080  0.45790714    -0.02000
C738        C  0.40176754  0.16594275  0.43766014     0.07700
C739        C  0.39266529  0.12929059  0.43110952    -0.02100
C740        C  0.38919076  0.10008424  0.44449552    -0.02100
C741        C  0.38439581  0.10731248  0.46448651     0.07800
C742        C  0.39510902  0.14346245  0.47130053    -0.02300
Br743      Br  0.39616226  0.15504817  0.49883788    -0.00800
Br744      Br  0.43194015  0.21615936  0.46741519    -0.00900
Br745      Br  0.40049948  0.05127119  0.43579585    -0.00900
Br746      Br  0.38245768  0.11743000  0.40419408    -0.00800
C747        C  0.39796129  0.36215678  0.45098436    -0.02000
C748        C  0.38946652  0.36407052  0.43081423     0.07700
C749        C  0.38612189  0.40082451  0.42320035    -0.02100
C750        C  0.38933781  0.43193865  0.43567727    -0.02100
C751        C  0.38524080  0.42805429  0.45585619     0.07800
C752        C  0.39102575  0.39260733  0.46363101    -0.00300
Br753      Br  0.38849536  0.38419346  0.49137526    -0.00800
Br754      Br  0.42525373  0.32181346  0.46147830    -0.00900
Br755      Br  0.40576973  0.47921599  0.42542614    -0.00900
Br756      Br  0.37485866  0.41318539  0.39666913    -0.00800
N757        N  0.43875278  0.76251626  0.35638337    -0.36700
N758        N  0.43914008  0.70743581  0.38812215    -0.57300
N759        N  0.41483353  0.76203305  0.41681722    -0.36700
N760        N  0.41192416  0.84130633  0.38305302    -0.57300
C761        C  0.45236979  0.73336960  0.34620485     0.26900
C762        C  0.43774957  0.79163535  0.34405115     0.26900
C763        C  0.40622383  0.73093735  0.42696913     0.26900
C764        C  0.39679204  0.79051839  0.42546851     0.26900
C765        C  0.45660398  0.68778841  0.37375906     0.35500
C766        C  0.44109410  0.68769860  0.40478311     0.35500
C767        C  0.39945903  0.82883880  0.36569002     0.35500
C768        C  0.38993657  0.82364966  0.39657582     0.35500
C769        C  0.46002534  0.74439860  0.32704418    -0.22000
C770        C  0.45185047  0.78145627  0.32587027    -0.22000
C771        C  0.38231926  0.74017755  0.44264324    -0.22000
C772        C  0.37687055  0.77816804  0.44185047    -0.22000
C773        C  0.47017134  0.65551583  0.38138932    -0.23100
C774        C  0.46076794  0.65565328  0.40099823    -0.23100
C775        C  0.36942537  0.80373476  0.36836954    -0.23100
C776        C  0.36364060  0.80007961  0.38800568    -0.23100
C777        C  0.45975004  0.69766696  0.35371523    -0.18400
C778        C  0.42338263  0.82661999  0.34933854    -0.18400
C779        C  0.39538582  0.82558979  0.41663560    -0.18400
C780        C  0.42036680  0.69517885  0.42246115    -0.18400
H781        H  0.47120822  0.72779916  0.31512558     0.14500
H782        H  0.45493813  0.79844102  0.31297863     0.14500
H783        H  0.36968784  0.72153031  0.45341658     0.14500
H784        H  0.35868387  0.79419597  0.45138141     0.14500
H785        H  0.48505512  0.63392853  0.37359880     0.12800
H786        H  0.46624568  0.63381929  0.41115027     0.12800
H787        H  0.35614591  0.78670434  0.35728154     0.12800
H788        H  0.34351618  0.78130986  0.39526382     0.12800
H789        H  0.43094325  0.76328949  0.37107416     0.26000
H790        H  0.43345267  0.76500019  0.40491183     0.26000
N791        N  0.16359444  0.75099273  0.36278737    -0.36700
N792        N  0.17920804  0.80778159  0.39223741    -0.57300
N793        N  0.20108695  0.75156232  0.41975175    -0.36700
N794        N  0.18622680  0.69497807  0.38982945    -0.57300
C795        C  0.16120949  0.78175823  0.35171216     0.26900
C796        C  0.16296269  0.72094829  0.35069805     0.26900
C797        C  0.21530565  0.78313576  0.42804920     0.26900
C798        C  0.22029802  0.72262982  0.42646703     0.26900
C799        C  0.16551682  0.82961361  0.37837276     0.35500
C800        C  0.18095816  0.82852380  0.40875022     0.35500
C801        C  0.17386202  0.67209766  0.37544573     0.35500
C802        C  0.19182810  0.67334259  0.40539594     0.35500
C803        C  0.15699338  0.77094119  0.33242277    -0.22000
C804        C  0.15786830  0.73274328  0.33179897    -0.22000
C805        C  0.24353569  0.77410523  0.44047039    -0.22000
C806        C  0.24673595  0.73593863  0.43943654    -0.22000
C807        C  0.15838410  0.86445506  0.38617740    -0.23100
C808        C  0.16702221  0.86340862  0.40550469    -0.23100
C809        C  0.17191410  0.63573921  0.38193289    -0.23100
C810        C  0.18167084  0.63671878  0.40104931    -0.23100
C811        C  0.16171051  0.81930392  0.35849571    -0.18400
C812        C  0.16681522  0.68316504  0.35616062    -0.18400
C813        C  0.21330765  0.68453461  0.42163860    -0.18400
C814        C  0.20273587  0.81964913  0.42492663    -0.18400
H815        H  0.15344966  0.78866642  0.32002298     0.14500
H816        H  0.15523559  0.71568466  0.31880568     0.14500
H817        H  0.26021199  0.79304364  0.44929550     0.14500
H818        H  0.26624167  0.71982526  0.44734953     0.14500
H819        H  0.14865449  0.88847873  0.37873254     0.12800
H820        H  0.16610350  0.88671193  0.41559210     0.12800
H821        H  0.16497428  0.61075202  0.37376388     0.12800
H822        H  0.18386151  0.61264550  0.41020725     0.12800
H823        H  0.16370010  0.75037256  0.37784072     0.26000
H824        H  0.17739207  0.74958966  0.41126559     0.26000
O825        O  0.37288790  0.95693832  0.48312228    -0.80300
O826        O  0.36182052  0.54883553  0.51962842    -0.80300
O827        O  0.35318260  0.54638379  0.47159037    -0.80300
O828        O  0.31512139  0.95880138  0.54345492    -0.80200
O829        O  0.34485914  0.59587085  0.49014667    -0.80400
O830        O  0.36272026  0.94884151  0.52342720    -0.80300
O831        O  0.31730490  0.53836892  0.54196482    -0.80300
O832        O  0.33769604  0.97164355  0.45962824    -0.80300
C833        C  0.36604811  0.95486026  0.46523569     1.09400
C834        C  0.34894748  0.55366624  0.53702046     1.09300
C835        C  0.36008460  0.58150730  0.47518502     1.09500
C836        C  0.34640428  0.94364874  0.53988418     1.09300
O837        O  0.29096402  0.91486436  0.51767190    -0.80300
O838        O  0.28043307  0.56153736  0.47943656    -0.80300
O839        O  0.26242033  0.97272502  0.47380870    -0.80300
O840        O  0.24691836  0.53776141  0.52100529    -0.80200
O841        O  0.29195961  0.57860071  0.51661624    -0.80300
O842        O  0.29715335  0.92400228  0.47869190    -0.80300
O843        O  0.24698704  0.95534744  0.52197166    -0.80200
O844        O  0.28977136  0.53076600  0.45187701    -0.80300
Co845      Co  0.33072699  0.94013465  0.50075900     1.51500
Co846      Co  0.32395380  0.54983939  0.49882945     1.51700
Co847      Co  0.30533650  0.50943600  0.47544299     1.51600
Co848      Co  0.28159734  0.49968991  0.53043103     1.51500
O849        O  0.30995778  0.49632084  0.50394850    -1.42200
C850        C  0.25764441  0.92230262  0.52304518     1.09400
C851        C  0.27515268  0.55797383  0.46085486     1.09500
C852        C  0.26792370  0.93807708  0.47189618     1.09400
C853        C  0.25856059  0.57128078  0.52180299     1.09400
N854        N  0.40262220  0.74970880  0.58918370    -0.36700
N855        N  0.39923204  0.80557156  0.62089122    -0.57300
N856        N  0.41960988  0.75038903  0.64890149    -0.36700
N857        N  0.42332528  0.69440438  0.61731719    -0.57300
C858        C  0.38870766  0.77865996  0.57945501     0.26900
C859        C  0.39658707  0.71823219  0.57835940     0.26900
C860        C  0.42379410  0.78143228  0.66007935     0.26900
C861        C  0.43574342  0.72257598  0.65833349     0.26900
C862        C  0.39113127  0.82773946  0.60591904     0.35500
C863        C  0.39873443  0.82730431  0.63713410     0.35500
C864        C  0.42061070  0.67164401  0.60156533     0.35500
C865        C  0.43378670  0.67315290  0.63220511     0.35500
C866        C  0.37508007  0.76569103  0.56185552    -0.22000
C867        C  0.37975233  0.72771226  0.56124086    -0.22000
C868        C  0.44182953  0.77288006  0.67699752    -0.22000
C869        C  0.44881170  0.73574408  0.67604362    -0.22000
C870        C  0.38517027  0.86357978  0.61284959    -0.23100
C871        C  0.38896012  0.86300850  0.63255381    -0.23100
C872        C  0.43029990  0.63597128  0.60644135    -0.23100
C873        C  0.43870095  0.63695272  0.62577189    -0.23100
C874        C  0.38674475  0.81627638  0.58619635    -0.18400
C875        C  0.40516900  0.68107786  0.58352106    -0.18400
C876        C  0.43951078  0.68558599  0.65155347    -0.18400
C877        C  0.41267842  0.81757159  0.65542278    -0.18400
H878        H  0.36200601  0.78174755  0.55084348     0.14500
H879        H  0.37138651  0.70911804  0.54954463     0.14500
H880        H  0.44960512  0.79145659  0.68880461     0.14500
H881        H  0.46289876  0.72050956  0.68701519     0.14500
H882        H  0.37857483  0.88790828  0.60467201     0.12800
H883        H  0.38674867  0.88679686  0.64225828     0.12800
H884        H  0.43034868  0.61145879  0.59716990     0.12800
H885        H  0.44699996  0.61349013  0.63418453     0.12800
H886        H  0.41701469  0.75193308  0.60205442     0.26000
H887        H  0.40471868  0.74763314  0.63619736     0.26000
N888        N  0.20186843  0.74284709  0.64223420    -0.36700
N889        N  0.20246897  0.68699784  0.61183203    -0.57300
N890        N  0.19816222  0.74444406  0.58283082    -0.36700
N891        N  0.19622712  0.80052544  0.61210747    -0.57300
C892        C  0.19303781  0.71164492  0.65256847     0.26900
C893        C  0.18962131  0.77201321  0.65297378     0.26900
C894        C  0.19064806  0.71363707  0.57208708     0.26900
C895        C  0.18899582  0.77403063  0.57219179     0.26900
C896        C  0.21098387  0.66597611  0.62715332     0.35500
C897        C  0.21012490  0.66670893  0.59565915     0.35500
C898        C  0.20027086  0.82194840  0.62821221     0.35500
C899        C  0.20298895  0.82289579  0.59655467     0.35500
C900        C  0.17602374  0.72129617  0.67024937    -0.22000
C901        C  0.17442603  0.75929372  0.67064428    -0.22000
C902        C  0.17587086  0.72361454  0.55450450    -0.22000
C903        C  0.17463532  0.76185824  0.55461190    -0.22000
C904        C  0.22411343  0.63204142  0.62071410    -0.23100
C905        C  0.22358497  0.63254623  0.60069990    -0.23100
C906        C  0.20889376  0.85834409  0.62294092    -0.23100
C907        C  0.21152489  0.85877459  0.60292376    -0.23100
C908        C  0.20050049  0.67472848  0.64659851    -0.18400
C909        C  0.19172154  0.80988811  0.64740574    -0.18400
C910        C  0.19889827  0.81135832  0.57684915    -0.18400
C911        C  0.20239767  0.67772410  0.57656612    -0.18400
H912        H  0.16557319  0.70297547  0.68171826     0.14500
H913        H  0.16268393  0.77556379  0.68254937     0.14500
H914        H  0.16843403  0.70532269  0.54251238     0.14500
H915        H  0.16613315  0.77888194  0.54272196     0.14500
H916        H  0.23150927  0.60880872  0.62954594     0.12800
H917        H  0.23051104  0.60975607  0.59103021     0.12800
H918        H  0.21257673  0.88220326  0.63249143     0.12800
H919        H  0.21764255  0.88310851  0.59418654     0.12800
H920        H  0.21740863  0.74452338  0.62917358     0.26000
H921        H  0.21497125  0.74545696  0.59495450     0.26000
C922        C  0.50594258  0.59328414  0.29237937     0.42300
N923        N  0.03177567  0.57699386  0.26967592     0.01200
C924        C  0.00852567  0.90301818  0.22011021    -0.06600
H925        H  0.02931981  0.88752288  0.29331155     0.06700
C926        C  0.15589684  0.95489352  0.28592902    -0.07000
Co927      Co  0.49103878  0.00806654  0.24811151     0.74200
N928        N  0.02249338  0.93564125  0.27546401    -0.26200
Co929      Co  0.06234989  0.93105757  0.25258870     0.74100
C930        C  0.14065308  0.92093973  0.29560226     0.42400
N931        N  0.13773405  0.54822187  0.26721087     0.00800
N932        N  0.10529185  0.93483228  0.27219794     0.01000
N933        N  0.46581550  0.96058893  0.21360559    -0.47000
H934        H  0.47010089  0.53872525  0.29597378     0.06700
N935        N  0.99783302  0.96223092  0.27616064     0.01200
N936        N  0.10383502  0.92774796  0.23000280     0.01000
C937        C  0.14448828  0.90812176  0.20857473     0.42600
N938        N  0.11423361  0.57529708  0.26498549    -0.25600
C939        C  0.47029934  0.53347856  0.21674419    -0.06600
N940        N  0.03115477  0.60432102  0.28278507    -0.46700
N941        N  0.11092473  0.89965684  0.21774410    -0.47000
C942        C  0.48328425  0.56043577  0.20223714     0.42400
N943        N  0.99331575  0.95491161  0.23388596     0.01200
N944        N  0.10835943  0.56479686  0.22336384    -0.25700
N945        N  0.00641373  0.55038616  0.27349532    -0.26100
N946        N  0.13430839  0.53945905  0.22403746     0.00900
H947        H  0.09448447  0.60501042  0.20182867     0.06800
H948        H  0.18490591  0.95757677  0.21486499     0.06800
N949        N  0.01849934  0.92892478  0.23335767    -0.26200
N950        N  0.13190687  0.96127314  0.27150495    -0.25800
N951        N  0.02483960  0.56752953  0.22723906     0.01200
C952        C  0.47011620  0.93010364  0.29159851     0.42600
C953        C  0.12286805  0.60299184  0.27723988    -0.07100
N954        N  0.13091438  0.95361614  0.22943016    -0.25800
H955        H  0.18107702  0.97124689  0.28895288     0.06800
N956        N  0.46311820  0.96280298  0.28327740    -0.47000
H957        H  0.10855510  0.62883878  0.27848269     0.06800
C958        C  0.14256486  0.56509516  0.19594652     0.42500
C959        C  0.49058357  0.55575884  0.28793990    -0.06600
Co960      Co  0.06993657  0.57200548  0.24608751     0.73800
N961        N  0.16170067  0.55563454  0.28134057    -0.46700
C962        C  0.47335016  0.92889234  0.20385092     0.42700
N963        N  0.01836205  0.58733905  0.21148601    -0.46700
Co964      Co  0.13596949  0.50245751  0.24792164     0.73900
C965        C  0.15791326  0.94329838  0.21685516    -0.07100
C966        C  0.01530264  0.91306967  0.29058493    -0.06600
N967        N  0.99744565  0.54312869  0.23128302    -0.26200
N968        N  0.10951420  0.91060015  0.28615992    -0.46900
H969        H  0.02210667  0.87682877  0.21832525     0.06700
C970        C  0.11163398  0.58260286  0.20633219    -0.07000
Cl971      Cl  0.06386702  0.99933146  0.24998492    -0.50000
C972        C  0.15395270  0.59011357  0.28824609     0.42500
H973        H  0.44448381  0.51692834  0.21732659     0.06700
N974        N  0.15541427  0.53870481  0.20776331    -0.46800
O975        O  0.51306676  0.68756321  0.97711877    -0.80300
O976        O  0.16213645  0.73614897  0.00283329    -0.80300
O977        O  0.09828776  0.74776470  0.95377828    -0.80300
O978        O  0.04504123  0.73195999  0.03868646    -0.80200
O979        O  0.11203457  0.70954427  0.97676222    -0.80400
O980        O  0.53587384  0.68463494  0.01550100    -0.80300
O981        O  0.11648739  0.72623921  0.02454612    -0.80300
O982        O  0.02102698  0.73337866  0.95397687    -0.80300
C983        C  0.00593376  0.70388441  0.96088616     1.09400
C984        C  0.15153688  0.72251123  0.01909671     1.09300
C985        C  0.11684354  0.72040276  0.95939222     1.09500
C986        C  0.53119094  0.69045613  0.03336856     1.09300
O987        O  0.49010501  0.75072423  0.02383501    -0.80300
O988        O  0.13518824  0.78897710  0.97672524    -0.80300
O989        O  0.00741479  0.80175536  0.97169905    -0.80300
O990        O  0.09841024  0.79015438  0.04262950    -0.80200
O991        O  0.12466158  0.79778062  0.01338118    -0.80300
O992        O  0.47171679  0.74976519  0.98650930    -0.80300
O993        O  0.03404588  0.80447387  0.02317672    -0.80200
O994        O  0.08371630  0.81933110  0.97281228    -0.80300
Co995      Co  0.00877877  0.72559505  0.99968529     1.51500
Co996      Co  0.11331140  0.75077894  0.99587750     1.51700
Co997      Co  0.05356604  0.77473011  0.96518976     1.51600
Co998      Co  0.07480465  0.76744519  0.02100494     1.51500
O999        O  0.05725368  0.75532162  0.99341523    -1.42200
C1000       C  0.00107916  0.79171099  0.02741453     1.09400
C1001       C  0.11901882  0.81851099  0.97189540     1.09500
C1002       C  0.97686847  0.78291964  0.97349014     1.09400
C1003       C  0.12476197  0.80414375  0.03189104     1.09400
N1004       N  0.35929140  0.84428749  0.88965107    -0.36700
N1005       N  0.30639061  0.88195083  0.86286652    -0.57300
N1006       N  0.24624424  0.88010288  0.89061987    -0.36700
N1007       N  0.29043959  0.83803002  0.91684570    -0.57300
C1008       C  0.36852145  0.83907897  0.87051416     0.26900
C1009       C  0.35452664  0.81017609  0.89774745     0.26900
C1010       C  0.22863277  0.87817783  0.87347245     0.26900
C1011       C  0.22262022  0.86486730  0.90415404     0.26900
C1012       C  0.33972680  0.88966331  0.85405946     0.35500
C1013       C  0.28118944  0.90141501  0.85342622     0.35500
C1014       C  0.31945482  0.82506456  0.92693730     0.35500
C1015       C  0.26548412  0.85339461  0.92977040     0.35500
C1016       C  0.36686374  0.80153195  0.86608695    -0.22000
C1017       C  0.35651645  0.78365974  0.88324493    -0.22000
C1018       C  0.19392250  0.86039392  0.87587093    -0.22000
C1019       C  0.19047010  0.85108628  0.89524652    -0.22000
C1020       C  0.33610778  0.91572316  0.83948825    -0.23100
C1021       C  0.29847097  0.92264495  0.83885457    -0.23100
C1022       C  0.31370212  0.83464321  0.94638127    -0.23100
C1023       C  0.27916839  0.85018698  0.94829448    -0.23100
C1024       C  0.37074799  0.86758437  0.85657128    -0.18400
C1025       C  0.34893816  0.80370433  0.91797616    -0.18400
C1026       C  0.22970331  0.86645310  0.92429435    -0.18400
C1027       C  0.24268072  0.89489307  0.85628384    -0.18400
H1028       H  0.36899613  0.78866769  0.85181894     0.14500
H1029       H  0.34640178  0.75557099  0.88447723     0.14500
H1030       H  0.17321395  0.85507507  0.86489330     0.14500
H1031       H  0.16622402  0.83718415  0.90192738     0.14500
H1032       H  0.35764982  0.92625119  0.82935070     0.12800
H1033       H  0.28517272  0.93980126  0.82839117     0.12800
H1034       H  0.33120398  0.83061948  0.95859123     0.12800
H1035       H  0.26616372  0.85596063  0.96222938     0.12800
H1036       H  0.35790613  0.86986956  0.89694256     0.26000
H1037       H  0.27114476  0.89492254  0.89358150     0.26000
N1038       N  0.31884632  0.66564905  0.84809345    -0.36700
N1039       N  0.26109682  0.66093759  0.87896307    -0.57300
N1040       N  0.31465863  0.69337763  0.90653074    -0.36700
N1041       N  0.37322767  0.69328247  0.87621928    -0.57300
C1042       C  0.29107860  0.64755094  0.83848697     0.26900
C1043       C  0.35110004  0.66001459  0.83775520     0.26900
C1044       C  0.28621185  0.68020959  0.91844134     0.26900
C1045       C  0.34614490  0.69605677  0.91719949     0.26900
C1046       C  0.23939125  0.65380051  0.86348099     0.35500
C1047       C  0.23722597  0.66733500  0.89419026     0.35500
C1048       C  0.39604199  0.69193302  0.86014383     0.35500
C1049       C  0.39346698  0.70968400  0.89047934     0.35500
C1050       C  0.30550982  0.63217433  0.82133906    -0.22000
C1051       C  0.34335334  0.63956548  0.82101074    -0.22000
C1052       C  0.29945398  0.67437060  0.93677532    -0.22000
C1053       C  0.33737410  0.68323590  0.93580648    -0.22000
C1054       C  0.20171954  0.65461883  0.86900806    -0.23100
C1055       C  0.20032182  0.66358081  0.88843511    -0.23100
C1056       C  0.43086239  0.70786614  0.86402145    -0.23100
C1057       C  0.42920432  0.71937176  0.88313833    -0.23100
C1058       C  0.25297750  0.64430939  0.84464785    -0.18400
C1059       C  0.38762602  0.67213872  0.84289049    -0.18400
C1060       C  0.38256218  0.70941489  0.91064367    -0.18400
C1061       C  0.24815205  0.67532244  0.91340345    -0.18400
H1062       H  0.29058892  0.61647770  0.81031878     0.14500
H1063       H  0.36292074  0.63066565  0.80966590     0.14500
H1064       H  0.28356481  0.66421288  0.94942731     0.14500
H1065       H  0.35615711  0.68089225  0.94764015     0.14500
H1066       H  0.17771340  0.64934802  0.85999092     0.12800
H1067       H  0.17497273  0.66646179  0.89733844     0.12800
H1068       H  0.45540957  0.70942639  0.85434604     0.12800
H1069       H  0.45275622  0.73042935  0.89116243     0.12800
H1070       H  0.31556384  0.68221279  0.86042650     0.26000
H1071       H  0.31165101  0.70304863  0.89248008     0.26000
C1072       C  0.47099741  0.92506268  0.70971296     0.42300
N1073       N  0.48874864  0.96566633  0.73101210     0.01200
C1074       C  0.16017907  0.55032437  0.72205228    -0.06600
H1075       H  0.17045977  0.92128493  0.73172069     0.06700
C1076       C  0.10107916  0.94209646  0.80093114    -0.07000
Co1077     Co  0.05598502  0.99564632  0.71542004     0.74200
N1078       N  0.12185293  0.95472520  0.72884534    -0.26200
Co1079     Co  0.12500182  0.99815387  0.74934307     0.74100
C1080       C  0.13857934  0.92867125  0.79683871     0.42400
N1081       N  0.01175583  0.96524248  0.78693004     0.00800
N1082       N  0.12203957  0.96179389  0.77286775     0.01000
N1083       N  0.11171436  0.55149511  0.70188212    -0.47000
H1084       H  0.02600463  0.92218583  0.69269836     0.06700
N1085       N  0.09570180  0.95510684  0.71571348     0.01200
N1086       N  0.13052161  0.53368710  0.77172404     0.01000
C1087       C  0.15086515  0.57778837  0.79018106     0.42600
N1088       N  0.48745019  0.97069531  0.77517820    -0.25600
C1089       C  0.02130202  0.55744716  0.70085589    -0.06600
N1090       N  0.45911890  0.94509780  0.72550781    -0.46700
N1091       N  0.15974623  0.55654222  0.77449258    -0.47000
C1092       C  0.48806112  0.57614233  0.70484597     0.42400
N1093       N  0.10502263  0.52750637  0.71599663     0.01200
N1094       N  0.49494656  0.55051607  0.76999481    -0.25700
N1095       N  0.01337284  0.95578948  0.71755893    -0.26100
N1096       N  0.02124409  0.54604348  0.78476169     0.00900
H1097       H  0.44635323  0.58356300  0.76653362     0.06800
H1098       H  0.09887337  0.57242012  0.81068684     0.06800
N1099       N  0.13246113  0.52657945  0.72833598    -0.26200
N1100       N  0.09407085  0.96357311  0.78583146    -0.25800
N1101       N  0.49358877  0.53628204  0.72726751     0.01200
C1102       C  0.13125308  0.91129006  0.70571048     0.42600
C1103       C  0.45988127  0.94639312  0.78095338    -0.07100
N1104       N  0.10336370  0.53790594  0.78496952    -0.25800
H1105       H  0.08517001  0.94177985  0.81461196     0.06800
N1106       N  0.10053285  0.93018549  0.70171813    -0.47000
H1107       H  0.43293010  0.94292618  0.77424023     0.06800
C1108       C  0.49002843  0.60082959  0.78918819     0.42500
C1109       C  0.00689347  0.92906043  0.70455108    -0.06600
Co1110     Co  0.49209695  0.00844882  0.75191668     0.73800
N1111       N  0.00625861  0.94184010  0.80152380    -0.46700
C1112       C  0.14613041  0.56700821  0.70421004     0.42700
N1113       N  0.47389440  0.56522141  0.72243973    -0.46700
Co1114     Co  0.05533590  0.00493620  0.78522734     0.73900
C1115       C  0.11366639  0.56520070  0.79724904    -0.07100
C1116       C  0.14554831  0.92752411  0.72395973    -0.06600
N1117       N  0.02347880  0.53359900  0.71544579    -0.26200
N1118       N  0.14960635  0.94160481  0.77905280    -0.46900
H1119       H  0.18748903  0.55305147  0.72839725     0.06700
C1120       C  0.47317750  0.57984424  0.77306982    -0.07000
Cl1121     Cl  0.05542743  0.99980563  0.75025364    -0.50000
C1122       C  0.47311131  0.92967732  0.79892185     0.42500
H1123       H  0.03820615  0.55703049  0.68750094     0.06700
N1124       N  0.02021924  0.57509663  0.79671805    -0.46800
N1125       N  0.31573675  0.59361033  0.13095896    -0.36700
N1126       N  0.37847141  0.61010609  0.10602246    -0.57300
N1127       N  0.32896058  0.63885076  0.07559131    -0.36700
N1128       N  0.26583601  0.62376242  0.10108232    -0.57300
C1129       C  0.34372303  0.59018159  0.14382177     0.26900
C1130       C  0.28314320  0.59599779  0.14134252     0.26900
C1131       C  0.36343323  0.65266833  0.07007258     0.26900
C1132       C  0.30285100  0.65934450  0.06690637     0.26900
C1133       C  0.39603426  0.59070834  0.11960113     0.35500
C1134       C  0.40183727  0.61187945  0.09028843     0.35500
C1135       C  0.23998158  0.60915828  0.11394347     0.35500
C1136       C  0.24719538  0.63277384  0.08489818     0.35500
C1137       C  0.32851993  0.58924323  0.16258746    -0.22000
C1138       C  0.29035425  0.59255685  0.16105439    -0.22000
C1139       C  0.35927468  0.68209231  0.05747843    -0.22000
C1140       C  0.32110095  0.68621360  0.05544577    -0.22000
C1141       C  0.43068400  0.57976565  0.11246428    -0.23100
C1142       C  0.43404675  0.59244148  0.09369621    -0.23100
C1143       C  0.20473450  0.60905049  0.10589273    -0.23100
C1144       C  0.20936918  0.62343020  0.08747706    -0.23100
C1145       C  0.38235467  0.58623530  0.13890310    -0.18400
C1146       C  0.24689365  0.59926013  0.13349676    -0.18400
C1147       C  0.26310399  0.65369143  0.06899470    -0.18400
C1148       C  0.39829923  0.63748480  0.07506603    -0.18400
H1149       H  0.34328491  0.58599505  0.17597453     0.14500
H1150       H  0.27030198  0.59227430  0.17320499     0.14500
H1151       H  0.38145579  0.69864852  0.05033967     0.14500
H1152       H  0.30826832  0.70670321  0.04659694     0.14500
H1153       H  0.45166207  0.56501420  0.12007781     0.12800
H1154       H  0.45860910  0.58998972  0.08415454     0.12800
H1155       H  0.17818560  0.60026808  0.11270787     0.12800
H1156       H  0.18714155  0.62790377  0.07745923     0.12800
H1157       H  0.31767414  0.59098073  0.11588496     0.26000
H1158       H  0.32391496  0.61443309  0.08336736     0.26000
N1159       N  0.30603518  0.84148056  0.14425084    -0.36700
N1160       N  0.36449877  0.84561160  0.11384110    -0.57300
N1161       N  0.30990979  0.83336280  0.08495990    -0.36700
N1162       N  0.25045210  0.82224806  0.11657441    -0.57300
C1163       C  0.33677111  0.84718609  0.15503619     0.26900
C1164       C  0.27674420  0.83335358  0.15668782     0.26900
C1165       C  0.34093798  0.81870559  0.07629162     0.26900
C1166       C  0.27959462  0.81659190  0.07705867     0.26900
C1167       C  0.38239733  0.86433396  0.12803175     0.35500
C1168       C  0.38539360  0.85080498  0.09731482     0.35500
C1169       C  0.22725302  0.82184573  0.13252642     0.35500
C1170       C  0.22841437  0.82062573  0.10095933     0.35500
C1171       C  0.32707674  0.84168706  0.17457553    -0.22000
C1172       C  0.28906642  0.83354649  0.17561967    -0.22000
C1173       C  0.33009017  0.79157511  0.06294071    -0.22000
C1174       C  0.29114008  0.78974730  0.06368832    -0.22000
C1175       C  0.41479956  0.88197866  0.12041016    -0.23100
C1176       C  0.41696775  0.87285237  0.10091126    -0.23100
C1177       C  0.19042989  0.81639274  0.12712382    -0.23100
C1178       C  0.19123468  0.81444254  0.10710715    -0.23100
C1179       C  0.37177437  0.86238124  0.14799117    -0.18400
C1180       C  0.23858738  0.83048198  0.15163646    -0.18400
C1181       C  0.24213825  0.82639330  0.08155372    -0.18400
C1182       C  0.37826999  0.83111476  0.07996639    -0.18400
H1183       H  0.34509399  0.84521042  0.18690897     0.14500
H1184       H  0.27220405  0.82929908  0.18883906     0.14500
H1185       H  0.34824992  0.77499138  0.05367481     0.14500
H1186       H  0.27332587  0.77145332  0.05509342     0.14500
H1187       H  0.43546664  0.89849240  0.12820316     0.12800
H1188       H  0.43947496  0.88068836  0.09067470     0.12800
H1189       H  0.16560635  0.81474123  0.13660298     0.12800
H1190       H  0.16694013  0.80984337  0.09824810     0.12800
H1191       H  0.30425798  0.84890235  0.12976773     0.26000
H1192       H  0.30893621  0.85619580  0.09444549     0.26000
C1193       C  0.20417850  0.64995336  0.81945807    -0.02000
C1194       C  0.22622380  0.62726504  0.83078745     0.07700
C1195       C  0.22512672  0.58840153  0.82796810    -0.02100
C1196       C  0.20263001  0.57237463  0.81351731    -0.02100
C1197       C  0.17891738  0.59485450  0.80298408     0.07800
C1198       C  0.17997086  0.63362772  0.80580893    -0.02300
Br1199     Br  0.14934009  0.66430440  0.79031351    -0.00800
Br1200     Br  0.20751042  0.70328335  0.82259097    -0.00900
Br1201     Br  0.20596312  0.52008565  0.80759924    -0.00900
Br1202     Br  0.25513856  0.55731265  0.84368982    -0.00800
C1203       C  0.43141742  0.62150435  0.83472774    -0.02000
C1204       C  0.41915495  0.65739561  0.83073715     0.07700
C1205       C  0.43159755  0.67546256  0.81351395    -0.02100
C1206       C  0.45566542  0.65728275  0.80009761    -0.02100
C1207       C  0.46736972  0.62109443  0.80393585     0.07800
C1208       C  0.45551156  0.60339653  0.82145292    -0.02300
Br1209     Br  0.46904122  0.55293776  0.82676872    -0.00800
Br1210     Br  0.41178916  0.59539005  0.85747424    -0.00900
Br1211     Br  0.47174285  0.68139311  0.77618056    -0.00900
Br1212     Br  0.41332050  0.72387241  0.80782899    -0.00800
C1213       C  0.21269094  0.88045880  0.82446727    -0.02000
C1214       C  0.21676520  0.90413899  0.84078361     0.07700
C1215       C  0.19614425  0.93665860  0.84252329    -0.02100
C1216       C  0.17043117  0.94511752  0.82825461    -0.02100
C1217       C  0.16563211  0.92087709  0.81199776     0.07800
C1218       C  0.18719383  0.88887924  0.81007314    -0.02300
Br1219     Br  0.18073799  0.85582035  0.78800681    -0.00800
Br1220     Br  0.24172184  0.83623118  0.82203250    -0.00900
Br1221     Br  0.14347997  0.99074987  0.83121905    -0.00900
Br1222     Br  0.20424602  0.97011339  0.86432831    -0.00800
C1223       C  0.40125956  0.86255174  0.82317830    -0.02000
C1224       C  0.40367566  0.87317626  0.84297388     0.07700
C1225       C  0.43175985  0.89910422  0.84852367    -0.02100
C1226       C  0.45418578  0.91791097  0.83428653    -0.02100
C1227       C  0.45065576  0.90873991  0.81420164     0.07800
C1228       C  0.42540365  0.87944698  0.80893721    -0.02300
Br1229     Br  0.42364718  0.86191459  0.78230438    -0.00800
Br1230     Br  0.36225472  0.82759655  0.81532606    -0.00900
Br1231     Br  0.48595246  0.95905714  0.84294695    -0.00900
Br1232     Br  0.43667402  0.91148296  0.87583026    -0.00800
C1233       C  0.21114188  0.69887953  0.06328213    -0.02000
C1234       C  0.23659492  0.67291679  0.05552449     0.07700
C1235       C  0.23414313  0.66333742  0.03551741    -0.02100
C1236       C  0.20696371  0.67953121  0.02364939    -0.02100
C1237       C  0.17948753  0.70346106  0.03181917     0.07800
C1238       C  0.18146425  0.71167895  0.05209558    -0.02300
Br1239     Br  0.14342947  0.73933385  0.06563167    -0.00800
Br1240     Br  0.21804820  0.71844178  0.08933789    -0.00900
Br1241     Br  0.20643905  0.66675747  0.99630139    -0.00900
Br1242     Br  0.26742832  0.62704763  0.02440199    -0.00800
C1243       C  0.47425341  0.64626060  0.03519097    -0.02000
C1244       C  0.50245496  0.66790514  0.04474352     0.07700
C1245       C  0.49832348  0.67393196  0.06495542    -0.02100
C1246       C  0.46335582  0.66718343  0.07447454    -0.02100
C1247       C  0.43366005  0.64930758  0.06437716     0.07800
C1248       C  0.44011919  0.63693638  0.04509407    -0.02300
Br1249     Br  0.40251078  0.60591487  0.03250778    -0.00800
Br1250     Br  0.48195942  0.62658213  0.00910585    -0.00900
Br1251     Br  0.45672325  0.68229662  0.10142647    -0.00900
Br1252     Br  0.04547552  0.69579405  0.07917559    -0.00800
C1253       C  0.18148682  0.85475147  0.06979019    -0.02000
C1254       C  0.21603946  0.83754355  0.06571806     0.07700
C1255       C  0.22412982  0.83069245  0.04589225    -0.02100
C1256       C  0.19454651  0.82080379  0.03371422    -0.02100
C1257       C  0.15682256  0.82507036  0.04065445     0.07800
C1258       C  0.15108707  0.84700502  0.05756773    -0.02300
Br1259     Br  0.10276999  0.86771801  0.06326245    -0.00800
Br1260     Br  0.17786678  0.89291767  0.08969747    -0.00900
Br1261     Br  0.20870436  0.80171789  0.00833965    -0.00900
Br1262     Br  0.27072236  0.84964526  0.03407306    -0.00800
C1263       C  0.44701699  0.82698355  0.03564604    -0.02000
C1264       C  0.47477779  0.80397486  0.04263238     0.07700
C1265       C  0.47295307  0.79408253  0.06238670    -0.02100
C1266       C  0.44067607  0.80075558  0.07406700    -0.02100
C1267       C  0.41111143  0.82133221  0.06673264     0.07800
C1268       C  0.41547096  0.83599029  0.04770415    -0.02300
Br1269     Br  0.37918440  0.86961736  0.03847587    -0.00800
Br1270     Br  0.45450781  0.84911393  0.01039478    -0.00900
Br1271     Br  0.43697869  0.78015474  0.09993151    -0.00900
Br1272     Br  0.01561023  0.78314195  0.07257145    -0.00800
C1273       C  0.13210927  0.86311525  0.94409621    -0.02000
C1274       C  0.14094150  0.84980178  0.96263296     0.07700
C1275       C  0.17282080  0.86625899  0.97124426    -0.02100
C1276       C  0.20199253  0.88127394  0.95893112    -0.02100
C1277       C  0.19821447  0.87769808  0.93863587     0.07800
C1278       C  0.16085368  0.88058078  0.93273570    -0.02300
Br1279     Br  0.14854948  0.91726836  0.91386006    -0.00800
Br1280     Br  0.08295261  0.85667020  0.93365601    -0.00900
Br1281     Br  0.23480985  0.92082442  0.96828835    -0.00900
Br1282     Br  0.16800378  0.88165150  0.99802235    -0.00800
C1283       C  0.45634727  0.78985042  0.93927027    -0.02000
C1284       C  0.44544560  0.78364803  0.96225494     0.07700
C1285       C  0.40151060  0.77486570  0.96868904    -0.02100
C1286       C  0.36903300  0.77316628  0.95251128    -0.02100
C1287       C  0.37891802  0.78278134  0.92956740     0.07800
C1288       C  0.42376709  0.78959003  0.92306458    -0.02300
Br1289     Br  0.44080682  0.80753657  0.89792228    -0.00800
Br1290     Br  0.50742316  0.79937811  0.93083106    -0.00900
Br1291     Br  0.31963492  0.75540263  0.96115200    -0.00900
Br1292     Br  0.38699017  0.77238852  0.99591517    -0.00800
C1293       C  0.19584766  0.65969279  0.93841366    -0.02000
C1294       C  0.21781936  0.68617331  0.92769297     0.07700
C1295       C  0.20572830  0.72274248  0.92669721    -0.02100
C1296       C  0.17110721  0.73247680  0.93525391    -0.02100
C1297       C  0.14955805  0.70698315  0.94707475     0.07800
C1298       C  0.16222396  0.67014819  0.94836978    -0.02300
Br1299     Br  0.13164355  0.63285767  0.96191786    -0.00800
Br1300     Br  0.21152944  0.60903398  0.93888154    -0.00900
Br1301     Br  0.15328481  0.78016308  0.92862859    -0.00900
Br1302     Br  0.23621456  0.75925553  0.91223405    -0.00800
C1303       C  0.43695453  0.71198272  0.95649987    -0.02000
C1304       C  0.46920017  0.69209927  0.95135733     0.07700
C1305       C  0.46980688  0.67507702  0.93330766    -0.02100
C1306       C  0.43845579  0.67850423  0.92186018    -0.02100
C1307       C  0.41404300  0.70970330  0.92476316     0.07800
C1308       C  0.41853527  0.73458148  0.94210742    -0.02300
Br1309     Br  0.40625673  0.83512349  0.94995572    -0.00800
Br1310     Br  0.40748711  0.68760041  0.97682834    -0.00900
Br1311     Br  0.42803041  0.63725355  0.90430805    -0.00900
Br1312     Br  0.51081717  0.64399464  0.92572946    -0.00800
C1313       C  0.45914242  0.88157820  0.17704046    -0.02000
C1314       C  0.44756736  0.91122997  0.18945967     0.07700
C1315       C  0.41059594  0.92457832  0.18763746    -0.02100
C1316       C  0.38786085  0.91084539  0.17274870    -0.02100
C1317       C  0.39793741  0.87881446  0.16230359     0.07800
C1318       C  0.43298954  0.86323017  0.16508177    -0.02300
Br1319     Br  0.44512459  0.81666771  0.15247005    -0.00800
Br1320     Br  0.51087609  0.86786768  0.17374507    -0.00900
Br1321     Br  0.34330160  0.93680447  0.16613296    -0.00900
Br1322     Br  0.38770673  0.95935205  0.20577854    -0.00800
C1323       C  0.20652945  0.88665756  0.16388473    -0.02000
C1324       C  0.21086193  0.84811096  0.16536256     0.07700
C1325       C  0.19089632  0.82823844  0.18016696    -0.02100
C1326       C  0.16787671  0.84726324  0.19398165    -0.02100
C1327       C  0.16447831  0.88634328  0.19289746     0.07800
C1328       C  0.18353415  0.90554634  0.17739027    -0.02300
Br1329     Br  0.17878222  0.95809687  0.17385785    -0.00800
Br1330     Br  0.23359380  0.91418058  0.14343839    -0.00900
Br1331     Br  0.14378228  0.81993783  0.21515559    -0.00900
Br1332     Br  0.19626622  0.77528009  0.18171170    -0.00800
C1333       C  0.42573004  0.61039808  0.16508120    -0.02000
C1334       C  0.41011405  0.57991744  0.15456268     0.07700
C1335       C  0.42285155  0.54400190  0.15808330    -0.02100
C1336       C  0.45016611  0.53857617  0.17217454    -0.02100
C1337       C  0.46321778  0.56848888  0.18396655     0.07800
C1338       C  0.45188011  0.60470510  0.17982006    -0.02300
Br1339     Br  0.47148499  0.64645211  0.19456205    -0.00800
Br1340     Br  0.41068786  0.66002967  0.15940609    -0.00900
Br1341     Br  0.98641181  0.51147976  0.17263923    -0.00900
Br1342     Br  0.40240832  0.50208001  0.14373409    -0.00800
C1343       C  0.16514891  0.55330231  0.16183339    -0.02000
C1344       C  0.16214471  0.57784959  0.17782078     0.07700
C1345       C  0.18041072  0.61317938  0.17681996    -0.02100
C1346       C  0.20549973  0.62144937  0.16111689    -0.02100
C1347       C  0.21412231  0.59361309  0.14721461     0.07800
C1348       C  0.19308836  0.55975758  0.14726348    -0.02300
Br1349     Br  0.20389015  0.52149169  0.12821190    -0.00800
Br1350     Br  0.12724015  0.51452743  0.15859420    -0.00900
Br1351     Br  0.23014769  0.66992977  0.15925585    -0.00900
Br1352     Br  0.17209947  0.65000067  0.19696067    -0.00800
C1353       C  0.20895659  0.64152677  0.67851257    -0.02000
C1354       C  0.19111221  0.64363373  0.66048917     0.07700
C1355       C  0.16159478  0.61798084  0.65639255    -0.02100
C1356       C  0.15145943  0.58974539  0.66965926    -0.02100
C1357       C  0.16503465  0.59115551  0.68893824     0.07800
C1358       C  0.19391280  0.61776324  0.69327043    -0.02300
Br1359     Br  0.21052181  0.62573597  0.71949716    -0.00800
Br1360     Br  0.25342161  0.67205377  0.68309931    -0.00900
Br1361     Br  0.12039631  0.54859282  0.66015210    -0.00900
Br1362     Br  0.13186413  0.62316097  0.63349044    -0.00800
C1363       C  0.20197233  0.85975156  0.67300392    -0.02000
C1364       C  0.17740201  0.83764855  0.66175495     0.07700
C1365       C  0.13837954  0.83964417  0.66492998    -0.02100
C1366       C  0.12389891  0.86155422  0.68022379    -0.02100
C1367       C  0.14817721  0.88476497  0.69139253     0.07800
C1368       C  0.18744301  0.88442502  0.68725810    -0.02300
Br1369     Br  0.22179211  0.91933852  0.69944944    -0.00800
Br1370     Br  0.25551943  0.85626021  0.66861154    -0.00900
Br1371     Br  0.07059327  0.85717965  0.68619156    -0.00900
Br1372     Br  0.10466124  0.81139755  0.64834089    -0.00800
C1373       C  0.42486731  0.63485240  0.67550474    -0.02000
C1374       C  0.45176581  0.65808407  0.66576849     0.07700
C1375       C  0.49006471  0.65601934  0.66987417    -0.02100
C1376       C  0.50135098  0.63140800  0.68408125    -0.02100
C1377       C  0.47478562  0.60644361  0.69295011     0.07800
C1378       C  0.43645957  0.60822202  0.68866873    -0.02300
Br1379     Br  0.40008861  0.57270477  0.69958568    -0.00800
Br1380     Br  0.37222659  0.63925007  0.67046951    -0.00900
Br1381     Br  0.04627938  0.64044296  0.68840038    -0.00900
Br1382     Br  0.52703577  0.68673038  0.65586081    -0.00800
C1383       C  0.46076727  0.90425153  0.67554836    -0.02000
C1384       C  0.44782450  0.90455226  0.69523371     0.07700
C1385       C  0.41802862  0.87980640  0.70093638    -0.02100
C1386       C  0.40405798  0.85325387  0.68739852    -0.02100
C1387       C  0.42285705  0.84860988  0.66912756     0.07800
C1388       C  0.45218399  0.87378440  0.66359583    -0.02300
Br1389     Br  0.48327177  0.86518870  0.64050298    -0.00800
Br1390     Br  0.48645964  0.94701251  0.66379634    -0.00900
Br1391     Br  0.36050521  0.82233709  0.69403944    -0.00900
Br1392     Br  0.39738752  0.88098134  0.72719476    -0.00800
C1393       C  0.41457515  0.63219886  0.55663508    -0.02000
C1394       C  0.39138238  0.64877890  0.57109929     0.07700
C1395       C  0.35701405  0.63071762  0.57640833    -0.02100
C1396       C  0.34439322  0.59829720  0.56643880    -0.02100
C1397       C  0.36611627  0.58298660  0.55057656     0.07800
C1398       C  0.40257662  0.59903242  0.54685870    -0.02300
Br1399     Br  0.43840795  0.57297776  0.53059713    -0.00800
Br1400     Br  0.46356520  0.65436481  0.55090510    -0.00900
Br1401     Br  0.29795289  0.57500782  0.57624208    -0.00900
Br1402     Br  0.32784305  0.64997082  0.59837938    -0.00800
C1403       C  0.39489751  0.89812588  0.55114216    -0.02000
C1404       C  0.35850088  0.91307647  0.55306691     0.07700
C1405       C  0.33175504  0.89481737  0.56595745    -0.02100
C1406       C  0.33976020  0.86062790  0.57449918    -0.02100
C1407       C  0.37578654  0.84604011  0.57246941     0.07800
C1408       C  0.40341637  0.86513681  0.56096125    -0.02300
Br1409     Br  0.45360797  0.84654239  0.55946814    -0.00800
Br1410     Br  0.43488803  0.92441329  0.53690712    -0.00900
Br1411     Br  0.30229494  0.83464094  0.59068334    -0.00900
Br1412     Br  0.28511354  0.91695032  0.57428448    -0.00800
C1413       C  0.20203118  0.59528214  0.54138951    -0.02000
C1414       C  0.23707579  0.60169317  0.53142137     0.07700
C1415       C  0.25574782  0.63687193  0.53378332    -0.02100
C1416       C  0.24586069  0.65958520  0.54953906    -0.02100
C1417       C  0.21220174  0.65251898  0.56011199     0.07800
C1418       C  0.18897492  0.62171907  0.55515344    -0.02300
Br1419     Br  0.14031811  0.61540864  0.56792918    -0.00800
Br1420     Br  0.17118419  0.55152036  0.53631331    -0.00900
Br1421     Br  0.28149154  0.69702192  0.55825836    -0.00900
Br1422     Br  0.29411981  0.65613910  0.51555250    -0.00800
C1423       C  0.18873088  0.87141920  0.55862161    -0.02000
C1424       C  0.20792880  0.83798950  0.56043689     0.07700
C1425       C  0.23665444  0.83005004  0.54648093    -0.02100
C1426       C  0.24668416  0.85541397  0.53173236    -0.02100
C1427       C  0.23416089  0.89223113  0.53298589     0.07800
C1428       C  0.20330285  0.89953088  0.54594946    -0.02300
Br1429     Br  0.18113004  0.94753629  0.54745045    -0.00800
Br1430     Br  0.14248741  0.87849073  0.57341413    -0.00900
Br1431     Br  0.27663135  0.83839646  0.50949056    -0.00900
Br1432     Br  0.26600200  0.78648332  0.54814003    -0.00800
C1433       C  0.19671682  0.65233027  0.32664176    -0.02000
C1434       C  0.16633080  0.65390983  0.34037997     0.07700
C1435       C  0.13564787  0.62827128  0.33867842    -0.02100
C1436       C  0.13437970  0.60325758  0.32274601    -0.02100
C1437       C  0.16246408  0.60509972  0.30784644     0.07800
C1438       C  0.19445641  0.62839976  0.31027981    -0.02300
Br1439     Br  0.23434123  0.62856121  0.29066467    -0.00800
Br1440     Br  0.24081189  0.68424508  0.32974919    -0.00900
Br1441     Br  0.09350106  0.56692941  0.32088836    -0.00900
Br1442     Br  0.09420118  0.62833363  0.35744748    -0.00800
C1443       C  0.18922487  0.85911595  0.33100312    -0.02000
C1444       C  0.15851600  0.84951688  0.34377749     0.07700
C1445       C  0.12455266  0.86794509  0.34211213    -0.02100
C1446       C  0.12157013  0.89573189  0.32806716    -0.02100
C1447       C  0.15049301  0.90240848  0.31394099     0.07800
C1448       C  0.18477277  0.88445202  0.31566344    -0.02300
Br1449     Br  0.22440063  0.89224129  0.29626773    -0.00800
Br1450     Br  0.23688066  0.83629091  0.33407199    -0.00900
Br1451     Br  0.07791462  0.92559217  0.32837374    -0.00900
Br1452     Br  0.08108608  0.85344306  0.35808971    -0.00800
C1453       C  0.23015362  0.61181025  0.46049336    -0.02000
C1454       C  0.25442570  0.58730414  0.45028456     0.07700
C1455       C  0.26265165  0.59461537  0.43036148    -0.02100
C1456       C  0.25490689  0.62937009  0.42243654    -0.02100
C1457       C  0.23131383  0.65416234  0.43268613     0.07800
C1458       C  0.21862741  0.64488903  0.45175047    -0.02300
Br1459     Br  0.18431742  0.67684791  0.46568360    -0.00800
Br1460     Br  0.20604364  0.59663175  0.48470232    -0.00900
Br1461     Br  0.27518601  0.64222702  0.39684143    -0.00900
Br1462     Br  0.27465385  0.55498557  0.41232781    -0.00800
C1463       C  0.25311597  0.91047892  0.43937776    -0.02000
C1464       C  0.24374781  0.91367637  0.45935224     0.07700
C1465       C  0.21700978  0.88813790  0.46748728    -0.02100
C1466       C  0.20445457  0.85670297  0.45665114    -0.02100
C1467       C  0.21745482  0.85142686  0.43720610     0.07800
C1468       C  0.24158540  0.87891054  0.42857404    -0.02300
Br1469     Br  0.25939726  0.87309026  0.40189330    -0.00800
Br1470     Br  0.27677360  0.95193675  0.42619202    -0.00900
Br1471     Br  0.16934094  0.82110681  0.46842106    -0.00900
Br1472     Br  0.19238561  0.90002613  0.49182057    -0.00800
C1473       C  0.45659202  0.61928131  0.31602735    -0.02000
C1474       C  0.49412015  0.62007399  0.30828901     0.07700
C1475       C  0.51986693  0.64746298  0.31574000    -0.02100
C1476       C  0.50930986  0.67077525  0.33148453    -0.02100
C1477       C  0.47244827  0.66894018  0.33929489     0.07800
C1478       C  0.44616352  0.64325091  0.33154720    -0.02300
Br1479     Br  0.39491186  0.64261103  0.34165912    -0.00800
Br1480     Br  0.41694118  0.59035741  0.30386477    -0.00900
Br1481     Br  0.54462726  0.70734858  0.34190086    -0.00900
Br1482     Br  0.56875805  0.65705747  0.30386916    -0.00800
C1483       C  0.45285524  0.88930843  0.34080995    -0.02000
C1484       C  0.42810545  0.85920649  0.33622365     0.07700
C1485       C  0.40905266  0.85954800  0.31848003    -0.02100
C1486       C  0.42048019  0.88518946  0.30394971    -0.02100
C1487       C  0.44852882  0.91237488  0.30782153     0.07800
C1488       C  0.46126148  0.91700361  0.32686749    -0.02300
Br1489     Br  0.99295258  0.95975354  0.34400925    -0.00800
Br1490     Br  0.47773459  0.89158115  0.36532465    -0.00900
Br1491     Br  0.39854329  0.88290263  0.27864620    -0.00900
Br1492     Br  0.36799072  0.82457499  0.31399164    -0.00800
C1493       C  0.41997538  0.66409032  0.45570536    -0.02000
C1494       C  0.41017275  0.66332812  0.43588000     0.07700
C1495       C  0.38967049  0.63205048  0.42879668    -0.02100
C1496       C  0.37940519  0.60244861  0.44125019    -0.02100
C1497       C  0.38356358  0.60580368  0.46157899     0.07800
C1498       C  0.40512053  0.63658679  0.46864954    -0.02300
Br1499     Br  0.41550200  0.64102685  0.49596817    -0.00800
Br1500     Br  0.45383276  0.70267581  0.46519649    -0.00900
Br1501     Br  0.36065885  0.55747364  0.42971057    -0.00900
Br1502     Br  0.37250970  0.63024419  0.40229580    -0.00800
C1503       C  0.41285451  0.86625882  0.44602494    -0.02000
C1504       C  0.39499021  0.86222202  0.42783235     0.07700
C1505       C  0.37763186  0.89423122  0.42057616    -0.02100
C1506       C  0.37662164  0.92709971  0.43176750    -0.02100
C1507       C  0.38474144  0.92713870  0.45173194     0.07800
C1508       C  0.40515138  0.89689734  0.45853576    -0.00300
Br1509     Br  0.42326032  0.89620585  0.48472513    -0.00800
Br1510     Br  0.45119440  0.83257626  0.45324333    -0.00900
Br1511     Br  0.36823481  0.97278416  0.41858677    -0.00900
Br1512     Br  0.35245853  0.89594883  0.39600836    -0.00800
N1513       N  0.92906337  0.25971399  0.35796992    -0.36700
N1514       N  0.92235738  0.20552994  0.38995863    -0.57300
N1515       N  0.88650890  0.25934475  0.41511759    -0.36700
N1516       N  0.89038552  0.33935291  0.38140814    -0.57300
C1517       C  0.94450282  0.23040268  0.34880502     0.26900
C1518       C  0.93120275  0.28854597  0.34549449     0.26900
C1519       C  0.87896060  0.22824355  0.42553751     0.26900
C1520       C  0.86377749  0.28621876  0.42183334     0.26900
C1521       C  0.94629104  0.18818495  0.37746658     0.35500
C1522       C  0.92582377  0.19011098  0.40771794     0.35500
C1523       C  0.88583275  0.32517309  0.36326433     0.35500
C1524       C  0.86456338  0.32101047  0.39282737     0.35500
C1525       C  0.95653698  0.24105044  0.33010962    -0.22000
C1526       C  0.94940179  0.27822784  0.32832767    -0.22000
C1527       C  0.85002402  0.23559344  0.43905785    -0.22000
C1528       C  0.84103762  0.27267257  0.43699022    -0.22000
C1529       C  0.96558786  0.16184651  0.38733728    -0.23100
C1530       C  0.95350157  0.16384220  0.40661130    -0.23100
C1531       C  0.85652748  0.29886247  0.36323592    -0.23100
C1532       C  0.84333110  0.29587707  0.38202164    -0.23100
C1533       C  0.95049329  0.19528530  0.35719826    -0.18400
C1534       C  0.91568026  0.32329330  0.34968711    -0.18400
C1535       C  0.86391076  0.32177620  0.41324811    -0.18400
C1536       C  0.89987901  0.19507092  0.42371967    -0.18400
H1537       H  0.97022092  0.22428272  0.31901000     0.14500
H1538       H  0.95556094  0.29510555  0.31560904     0.14500
H1539       H  0.83711528  0.21654094  0.44955337     0.14500
H1540       H  0.81963188  0.28742928  0.44514450     0.14500
H1541       H  0.98642361  0.14340662  0.38129747     0.12800
H1542       H  0.96223517  0.14626477  0.41822252     0.12800
H1543       H  0.84882800  0.28052676  0.35129564     0.12800
H1544       H  0.82220557  0.27595203  0.38744151     0.12800
H1545       H  0.91791138  0.26087931  0.37209827     0.26000
H1546       H  0.90844517  0.26395020  0.40498057     0.26000
N1547       N  0.66144216  0.25083895  0.36275497    -0.36700
N1548       N  0.67155563  0.30707785  0.39252141    -0.57300
N1549       N  0.68584820  0.24979602  0.42101723    -0.36700
N1550       N  0.67557265  0.19352640  0.39057397    -0.57300
C1551       C  0.65073552  0.28136354  0.35328990     0.26900
C1552       C  0.64722182  0.22071718  0.35318525     0.26900
C1553       C  0.69494922  0.28155373  0.43088896     0.26900
C1554       C  0.70521064  0.22180561  0.42861663     0.26900
C1555       C  0.65785889  0.32772114  0.37819755     0.35500
C1556       C  0.66228801  0.32394805  0.40957795     0.35500
C1557       C  0.66765743  0.17114793  0.37517481     0.35500
C1558       C  0.68742695  0.17135387  0.40473655     0.35500
C1559       C  0.62798666  0.27059369  0.33804905    -0.22000
C1560       C  0.62648769  0.23226406  0.33772766    -0.22000
C1561       C  0.71978544  0.27358194  0.44529970    -0.22000
C1562       C  0.72622490  0.23590474  0.44388122    -0.22000
C1563       C  0.63688286  0.35607568  0.38624070    -0.23100
C1564       C  0.64075625  0.35446722  0.40613997    -0.23100
C1565       C  0.67370056  0.13449589  0.37967134    -0.23100
C1566       C  0.68560879  0.13451070  0.39844240    -0.23100
C1567       C  0.66160425  0.31853981  0.35817012    -0.18400
C1568       C  0.65489525  0.18318084  0.35708397    -0.18400
C1569       C  0.70398846  0.18387591  0.42231385    -0.18400
C1570       C  0.68059194  0.31713142  0.42711824    -0.18400
H1571       H  0.61446133  0.28847486  0.32801678     0.14500
H1572       H  0.61195236  0.21482985  0.32725749     0.14500
H1573       H  0.73214377  0.29287533  0.45566802     0.14500
H1574       H  0.74455025  0.22067907  0.45296218     0.14500
H1575       H  0.62092325  0.37605071  0.37856919     0.12800
H1576       H  0.63006476  0.37409710  0.41682685     0.12800
H1577       H  0.66997674  0.11020840  0.37041672     0.12800
H1578       H  0.69323276  0.11009418  0.40627866     0.12800
H1579       H  0.68153072  0.25077308  0.37342658     0.26000
H1580       H  0.66548050  0.24725910  0.41050695     0.26000
O1581       O  0.84471955  0.45211507  0.48193235    -0.80300
O1582       O  0.84648618  0.04337443  0.52184533    -0.80300
O1583       O  0.84324706  0.04493421  0.47358609    -0.80300
O1584       O  0.79113968  0.45601856  0.54365173    -0.80200
O1585       O  0.83217409  0.09238955  0.49317903    -0.80400
O1586       O  0.83730360  0.44277084  0.52309933    -0.80300
O1587       O  0.80009325  0.03223857  0.54275057    -0.80300
O1588       O  0.80808185  0.46825002  0.45938689    -0.80300
C1589       C  0.83577941  0.44981085  0.46428982     1.09400
C1590       C  0.83188834  0.04807177  0.53883446     1.09300
C1591       C  0.84918029  0.07999644  0.47824787     1.09500
C1592       C  0.82153574  0.43932969  0.53994239     1.09300
O1593       O  0.76496433  0.41245104  0.51805463    -0.80300
O1594       O  0.76950760  0.05949020  0.47992377    -0.80300
O1595       O  0.73475857  0.47354827  0.47494718    -0.80300
O1596       O  0.73174264  0.03094071  0.52019811    -0.80200
O1597       O  0.77576065  0.07366438  0.51772575    -0.80300
O1598       O  0.76710977  0.42285453  0.47954146    -0.80300
O1599       O  0.72181437  0.45318948  0.52335598    -0.80200
O1600       O  0.78259978  0.03175855  0.45185673    -0.80300
Co1601     Co  0.80360253  0.43669873  0.50063789     1.51500
Co1602     Co  0.81056311  0.04598992  0.50025902     1.51700
Co1603     Co  0.79448368  0.00799592  0.47525438     1.51600
Co1604     Co  0.76685892  0.99321796  0.52974856     1.51500
O1605       O  0.79646972  0.99169214  0.50356555    -1.42200
C1606       C  0.73230930  0.41997882  0.52416673     1.09400
C1607       C  0.76743367  0.05827223  0.46108471     1.09500
C1608       C  0.73803080  0.43841242  0.47344641     1.09400
C1609       C  0.74171298  0.06495364  0.52111512     1.09400
N1610       N  0.87206513  0.24672406  0.59287190    -0.36700
N1611       N  0.87222282  0.30339021  0.62416160    -0.57300
N1612       N  0.89049723  0.24704939  0.65246177    -0.36700
N1613       N  0.89131973  0.19060565  0.62125454    -0.57300
C1614       C  0.85766826  0.27578743  0.58336647     0.26900
C1615       C  0.86467567  0.21500705  0.58242054     0.26900
C1616       C  0.89497045  0.27782464  0.66382692     0.26900
C1617       C  0.90264303  0.21794006  0.66259393     0.26900
C1618       C  0.86602012  0.32580648  0.60897927     0.35500
C1619       C  0.87623903  0.32584091  0.63999103     0.35500
C1620       C  0.89229508  0.16936482  0.60487918     0.35500
C1621       C  0.90544826  0.17016022  0.63556624     0.35500
C1622       C  0.84206479  0.26247181  0.56629618    -0.22000
C1623       C  0.84589579  0.22427546  0.56584936    -0.22000
C1624       C  0.90834303  0.26761999  0.68171027    -0.22000
C1625       C  0.91219029  0.22996111  0.68112006    -0.22000
C1626       C  0.86551396  0.36255568  0.61537520    -0.23100
C1627       C  0.87087200  0.36241926  0.63497688    -0.23100
C1628       C  0.90733113  0.13528813  0.60882867    -0.23100
C1629       C  0.91578598  0.13585791  0.62818452    -0.23100
C1630       C  0.85828344  0.31397014  0.58962889    -0.18400
C1631       C  0.87554685  0.17817768  0.58708189    -0.18400
C1632       C  0.90965282  0.18172987  0.65521754    -0.18400
C1633       C  0.88974784  0.31517843  0.65828385    -0.18400
H1634       H  0.82915257  0.27861152  0.55528958     0.14500
H1635       H  0.83645119  0.20554532  0.55443433     0.14500
H1636       H  0.91580645  0.28534851  0.69388808     0.14500
H1637       H  0.92318497  0.21377044  0.69271506     0.14500
H1638       H  0.86149140  0.38718318  0.60689172     0.12800
H1639       H  0.87257691  0.38683071  0.64429623     0.12800
H1640       H  0.91119777  0.11211024  0.59887200     0.12800
H1641       H  0.92790785  0.11340049  0.63596037     0.12800
H1642       H  0.88864354  0.24899607  0.60501547     0.26000
H1643       H  0.88045847  0.24596518  0.63851084     0.26000
N1644       N  0.67516808  0.23115323  0.63839626    -0.36700
N1645       N  0.68201225  0.18071725  0.60537471    -0.57300
N1646       N  0.67289912  0.24183993  0.57994565    -0.36700
N1647       N  0.66486931  0.29299521  0.61252051    -0.57300
C1648       C  0.67080686  0.19753368  0.64694153     0.26900
C1649       C  0.66036529  0.25642853  0.65090667     0.26900
C1650       C  0.66744442  0.21306965  0.56734903     0.26900
C1651       C  0.66205030  0.27297678  0.57121704     0.26900
C1652       C  0.69486906  0.15925488  0.61955915     0.35500
C1653       C  0.69191289  0.16447383  0.58824378     0.35500
C1654       C  0.66810002  0.31161245  0.62961710     0.35500
C1655       C  0.67254529  0.31786488  0.59820386     0.35500
C1656       C  0.65290202  0.20143807  0.66503681    -0.22000
C1657       C  0.64683589  0.23861885  0.66766683    -0.22000
C1658       C  0.65183245  0.22597975  0.55055298    -0.22000
C1659       C  0.64898359  0.26397262  0.55288331    -0.22000
C1660       C  0.71290449  0.12906408  0.61147315    -0.23100
C1661       C  0.71107288  0.13238837  0.59159471    -0.23100
C1662       C  0.67663839  0.34885327  0.62617966    -0.23100
C1663       C  0.68038831  0.35264212  0.60625650    -0.23100
C1664       C  0.68550551  0.16403526  0.63950760    -0.18400
C1665       C  0.66137688  0.29536810  0.64812438    -0.18400
C1666       C  0.67044210  0.30947657  0.57805211    -0.18400
C1667       C  0.68132624  0.17698587  0.56977655    -0.18400
H1668       H  0.64572367  0.17988673  0.67550799     0.14500
H1669       H  0.63429217  0.25096612  0.68063147     0.14500
H1670       H  0.64549178  0.21008500  0.53752248     0.14500
H1671       H  0.64001510  0.28307869  0.54201688     0.14500
H1672       H  0.72499611  0.10642479  0.61912128     0.12800
H1673       H  0.72203496  0.11307518  0.58086294     0.12800
H1674       H  0.68025454  0.37089246  0.63686531     0.12800
H1675       H  0.68729380  0.37822109  0.59862365     0.12800
H1676       H  0.69134777  0.23702648  0.62586037     0.26000
H1677       H  0.68938182  0.24166981  0.59217840     0.26000
C1678       C  0.99633224  0.09222209  0.29505471     0.42300
N1679       N  0.52043126  0.07904256  0.26558733     0.01200
C1680       C  0.50877190  0.39991117  0.22149104    -0.06600
H1681       H  0.53808850  0.38698209  0.29321267     0.06700
C1682       C  0.66057734  0.45188608  0.28457280    -0.07000
Co1683     Co  0.99896254  0.50558044  0.25383793     0.74200
N1684       N  0.52892430  0.43481758  0.27586833    -0.26200
Co1685     Co  0.56553736  0.42802628  0.25268547     0.74100
C1686       C  0.64432092  0.41967325  0.29529710     0.42400
N1687       N  0.62633948  0.05164390  0.26673902     0.00800
N1688       N  0.60936431  0.43169437  0.27157578     0.01000
N1689       N  0.96586642  0.45580754  0.22173514    -0.47000
H1690       H  0.96004753  0.03747800  0.29636672     0.06700
N1691       N  0.50500422  0.46187530  0.27716604     0.01200
N1692       N  0.60420159  0.42252252  0.22969728     0.01000
C1693       C  0.63814531  0.40123128  0.20621121     0.42600
N1694       N  0.60303250  0.07859606  0.26382597    -0.25600
C1695       C  0.96591425  0.03656569  0.21773302    -0.06600
N1696       N  0.51825852  0.10613417  0.27870827    -0.46700
N1697       N  0.60678749  0.39416903  0.21723266    -0.47000
C1698       C  0.97834096  0.06505371  0.20409154     0.42400
N1699       N  0.49586709  0.45249460  0.23501445     0.01200
N1700       N  0.60241934  0.06896729  0.22203620    -0.25700
N1701       N  0.49483076  0.05222124  0.26848840    -0.26100
N1702       N  0.62853904  0.04396656  0.22354114     0.00900
H1703       H  0.58967716  0.10821275  0.19980511     0.06800
H1704       H  0.68148035  0.44964869  0.20871814     0.06800
N1705       N  0.52019724  0.42578487  0.23441010    -0.26200
N1706       N  0.63652901  0.45740862  0.27013065    -0.25800
N1707       N  0.51845699  0.07115713  0.22292123     0.01200
C1708       C  0.98599014  0.43162014  0.29983403     0.42600
C1709       C  0.61077097  0.10652955  0.27611073    -0.07100
N1710       N  0.63225981  0.44723616  0.22773125    -0.25800
H1711       H  0.68675183  0.46720271  0.28673083     0.06800
N1712       N  0.97674568  0.46286019  0.29070774    -0.47000
H1713       H  0.59735715  0.13290581  0.27641117     0.06800
C1714       C  0.63891454  0.06915051  0.19553733     0.42500
C1715       C  0.98114795  0.05515662  0.28918738    -0.06600
Co1716     Co  0.56127666  0.07530480  0.24335014     0.73800
N1717       N  0.64933303  0.05937549  0.28122831    -0.46700
C1718       C  0.97313528  0.42551753  0.21061581     0.42700
N1719       N  0.51324547  0.09094872  0.20697382    -0.46700
Co1720     Co  0.62765051  0.00650576  0.24733834     0.73900
C1721       C  0.65513459  0.43613188  0.21313802    -0.07100
C1722       C  0.52444245  0.41305084  0.29134151    -0.06600
N1723       N  0.49105183  0.04643144  0.22614536    -0.26200
N1724       N  0.61301612  0.40882245  0.28622765    -0.46900
H1725       H  0.52132958  0.37319477  0.21965401     0.06700
C1726       C  0.60699524  0.08652462  0.20500391    -0.07000
Cl1727     Cl  0.56879353  0.49584799  0.24881552    -0.50000
C1728       C  0.64108497  0.09388053  0.28778423     0.42500
H1729       H  0.94080482  0.01887467  0.21769814     0.06700
N1730       N  0.65099063  0.04308954  0.20776775    -0.46800
O1731       O  0.01750398  0.19071908  0.97640748    -0.80300
O1732       O  0.65996921  0.22770554  0.00365992    -0.80300
O1733       O  0.59829496  0.24660274  0.95554869    -0.80300
O1734       O  0.54283220  0.22004510  0.03931792    -0.80200
O1735       O  0.60974098  0.20468990  0.97702124    -0.80400
O1736       O  0.03566695  0.18553660  0.01485862    -0.80300
O1737       O  0.61413342  0.21567229  0.02492986    -0.80300
O1738       O  0.52193384  0.23434146  0.95476808    -0.80300
C1739       C  0.50630031  0.20395059  0.95989678     1.09400
C1740       C  0.64931604  0.21329143  0.01969960     1.09300
C1741       C  0.61590662  0.21788181  0.96023567     1.09500
C1742       C  0.03058861  0.19107661  0.03270012     1.09300
O1743       O  0.99058141  0.25282050  0.02312124    -0.80300
O1744       O  0.63496801  0.28385548  0.97932120    -0.80300
O1745       O  0.50703266  0.29900957  0.97523183    -0.80300
O1746       O  0.59839395  0.27792501  0.04487600    -0.80200
O1747       O  0.62346428  0.28874805  0.01570856    -0.80300
O1748       O  0.97530501  0.25293942  0.98539861    -0.80300
O1749       O  0.53337846  0.29475878  0.02634307    -0.80200
O1750       O  0.58444534  0.31620317  0.97699514    -0.80300
Co1751     Co  0.50707084  0.21942320  0.99988110     1.51500
Co1752     Co  0.61171110  0.24377716  0.99714825     1.51700
Co1753     Co  0.55370468  0.27311221  0.96771073     1.51600
Co1754     Co  0.57344793  0.25760292  0.02288884     1.51500
O1755       O  0.55597161  0.24945692  0.99492681    -1.42200
C1756       C  0.50022478  0.28194999  0.02998446     1.09400
C1757       C  0.61968316  0.31442643  0.97545074     1.09500
C1758       C  0.47622693  0.28007929  0.97601512     1.09400
C1759       C  0.62442111  0.29305844  0.03430252     1.09400
N1760       N  0.85657673  0.34187559  0.88946849    -0.36700
N1761       N  0.80342140  0.37878758  0.86380003    -0.57300
N1762       N  0.74503728  0.37813911  0.89315620    -0.36700
N1763       N  0.79101065  0.33766191  0.91852365    -0.57300
C1764       C  0.86531380  0.33546620  0.87039160     0.26900
C1765       C  0.85343355  0.30833913  0.89821599     0.26900
C1766       C  0.72618786  0.37639984  0.87636784     0.26900
C1767       C  0.72177430  0.36398854  0.90723308     0.26900
C1768       C  0.83592383  0.38527077  0.85388788     0.35500
C1769       C  0.77757312  0.39818159  0.85484832     0.35500
C1770       C  0.82096478  0.32503056  0.92800033     0.35500
C1771       C  0.76681480  0.35283128  0.93193467     0.35500
C1772       C  0.86510049  0.29775592  0.86663655    -0.22000
C1773       C  0.85609687  0.28098460  0.88422096    -0.22000
C1774       C  0.69109896  0.35985420  0.87953147    -0.22000
C1775       C  0.68863760  0.35115477  0.89895574    -0.22000
C1776       C  0.83126306  0.41052131  0.83907162    -0.23100
C1777       C  0.79370192  0.41818181  0.83946043    -0.23100
C1778       C  0.81666732  0.33494076  0.94748584    -0.23100
C1779       C  0.78208625  0.34998242  0.95010720    -0.23100
C1780       C  0.86681637  0.36287103  0.85598483    -0.18400
C1781       C  0.84962217  0.30313635  0.91858761    -0.18400
C1782       C  0.73023553  0.36517455  0.92726630    -0.18400
C1783       C  0.73925326  0.39236193  0.85879480    -0.18400
H1784       H  0.86743252  0.28402966  0.85257784     0.14500
H1785       H  0.84746926  0.25283987  0.88615464     0.14500
H1786       H  0.66938983  0.35502223  0.86903501     0.14500
H1787       H  0.66425975  0.33840283  0.90603830     0.14500
H1788       H  0.85189352  0.42000216  0.82818377     0.12800
H1789       H  0.77961424  0.43496529  0.82912367     0.12800
H1790       H  0.83505707  0.33132932  0.95936693     0.12800
H1791       H  0.77025105  0.35550882  0.96430613     0.12800
H1792       H  0.85479553  0.36789384  0.89628262     0.26000
H1793       H  0.77065777  0.39215425  0.89548638     0.26000
N1794       N  0.81881628  0.17489197  0.84829810    -0.36700
N1795       N  0.76111380  0.16910044  0.87929653    -0.57300
N1796       N  0.81640853  0.19398360  0.90766892    -0.36700
N1797       N  0.87505310  0.19339528  0.87726286    -0.57300
C1798       C  0.78960433  0.16241833  0.83766219     0.26900
C1799       C  0.85047769  0.16928853  0.83741435     0.26900
C1800       C  0.78756387  0.18191602  0.91959050     0.26900
C1801       C  0.84789420  0.19609160  0.91832241     0.26900
C1802       C  0.73891476  0.16325140  0.86385945     0.35500
C1803       C  0.73788912  0.17219488  0.89512502     0.35500
C1804       C  0.89785855  0.19145273  0.86126048     0.35500
C1805       C  0.89598273  0.20811560  0.89165449     0.35500
C1806       C  0.80273539  0.15188983  0.81922552    -0.22000
C1807       C  0.84106818  0.15544106  0.81922747    -0.22000
C1808       C  0.80067731  0.17590684  0.93796552    -0.22000
C1809       C  0.83883039  0.18376929  0.93699892    -0.22000
C1810       C  0.70151366  0.16145786  0.87003465    -0.23100
C1811       C  0.70082164  0.16765044  0.88975406    -0.23100
C1812       C  0.93362378  0.20456584  0.86537278    -0.23100
C1813       C  0.93235595  0.21575570  0.88450847    -0.23100
C1814       C  0.75175137  0.15745538  0.84437599    -0.18400
C1815       C  0.88782379  0.17492223  0.84344980    -0.18400
C1816       C  0.88452037  0.20867643  0.91171619    -0.18400
C1817       C  0.74938067  0.17816801  0.91450025    -0.18400
H1818       H  0.78660551  0.14103702  0.80721429     0.14500
H1819       H  0.85984125  0.14815912  0.80719964     0.14500
H1820       H  0.78453025  0.16645574  0.95068041     0.14500
H1821       H  0.85757427  0.18123838  0.94888768     0.14500
H1822       H  0.67713780  0.15631200  0.86127713     0.12800
H1823       H  0.67581341  0.16807375  0.89909507     0.12800
H1824       H  0.95816008  0.20536089  0.85567615     0.12800
H1825       H  0.95626731  0.22583021  0.89258826     0.12800
H1826       H  0.81714767  0.18626340  0.86208688     0.26000
H1827       H  0.81372027  0.20337097  0.89363321     0.26000
C1828       C  0.96562188  0.41720140  0.71078897     0.42300
N1829       N  0.98470549  0.45932564  0.73111637     0.01200
C1830       C  0.66602676  0.05281783  0.72036385    -0.06600
H1831       H  0.66617944  0.40739370  0.73592344     0.06700
C1832       C  0.59918854  0.44523638  0.80387895    -0.07000
Co1833     Co  0.55564275  0.48481825  0.71688878     0.74200
N1834       N  0.61968350  0.44337619  0.73196750    -0.26200
Co1835     Co  0.62632506  0.49069964  0.74976383     0.74100
C1836       C  0.63459870  0.42717884  0.80007271     0.42400
N1837       N  0.51207756  0.47254626  0.78936318     0.00800
N1838       N  0.62141741  0.45929262  0.77513618     0.01000
N1839       N  0.61652207  0.05535692  0.70090201    -0.47000
H1840       H  0.51837620  0.40884252  0.69900503     0.06700
N1841       N  0.59214500  0.44221165  0.71962172     0.01200
N1842       N  0.63320426  0.04082525  0.77191302     0.01000
C1843       C  0.65122502  0.08686256  0.78992486     0.42600
N1844       N  0.98366427  0.46580174  0.77513352    -0.25600
C1845       C  0.52470702  0.06406138  0.70149305    -0.06600
N1846       N  0.95475607  0.43861808  0.72625742    -0.46700
N1847       N  0.66114906  0.06543732  0.77439476    -0.47000
C1848       C  0.97947763  0.08222378  0.70778459     0.42400
N1849       N  0.60846622  0.03481773  0.71625587     0.01200
N1850       N  0.98931842  0.04466400  0.77130475    -0.25700
N1851       N  0.51059324  0.44851026  0.72195998    -0.26100
N1852       N  0.52356901  0.05108926  0.78542946     0.00900
H1853       H  0.94150758  0.07872372  0.76732598     0.06800
H1854       H  0.59925724  0.08002331  0.81030197     0.06800
N1855       N  0.63644743  0.03328847  0.72823232    -0.26200
N1856       N  0.59416093  0.46549277  0.78806651    -0.25800
N1857       N  0.98917994  0.03914365  0.72819270     0.01200
C1858       C  0.62277395  0.39339414  0.71220120     0.42600
C1859       C  0.95612551  0.44146368  0.78089669    -0.07100
N1860       N  0.60588856  0.04431249  0.78516585    -0.25800
H1861       H  0.58367186  0.44807909  0.81758178     0.06800
N1862       N  0.59317845  0.41339802  0.70769301    -0.47000
H1863       H  0.92923462  0.43791181  0.77413226     0.06800
C1864       C  0.98426956  0.09444816  0.79075372     0.42500
C1865       C  0.50132040  0.41917704  0.71104344    -0.06600
Co1866     Co  0.98865676  0.50284759  0.75164727     0.73800
N1867       N  0.50570434  0.45018044  0.80434928    -0.46700
C1868       C  0.65248400  0.06724196  0.70189750     0.42700
N1869       N  0.96608974  0.06618481  0.72446136    -0.46700
Co1870     Co  0.55834999  0.50903155  0.78553574     0.73900
C1871       C  0.61471473  0.07265841  0.79708783    -0.07100
C1872       C  0.64081321  0.41342677  0.72849790    -0.06600
N1873       N  0.52709607  0.04046652  0.71610859    -0.26200
N1874       N  0.64658667  0.43685930  0.78187267    -0.46900
H1875       H  0.69427342  0.05253672  0.72562065     0.06700
C1876       C  0.96739263  0.07382017  0.77455496    -0.07000
Cl1877     Cl  0.55697820  0.49704718  0.75107103    -0.50000
C1878       C  0.96952860  0.42450762  0.79876794     0.42500
H1879       H  0.54115231  0.06303831  0.68800234     0.06700
N1880       N  0.52167180  0.07983470  0.79756394    -0.46800
N1881       N  0.81380862  0.09580082  0.13156591    -0.36700
N1882       N  0.87772797  0.11464433  0.10693928    -0.57300
N1883       N  0.82946166  0.14192967  0.07682149    -0.36700
N1884       N  0.76525439  0.12417832  0.10179567    -0.57300
C1885       C  0.84141483  0.09428099  0.14469180     0.26900
C1886       C  0.78072116  0.09656104  0.14165148     0.26900
C1887       C  0.86374213  0.15580524  0.07109604     0.26900
C1888       C  0.80321045  0.16274422  0.06863968     0.26900
C1889       C  0.89465847  0.09563341  0.12086237     0.35500
C1890       C  0.90139840  0.11515988  0.09125870     0.35500
C1891       C  0.73907190  0.10754504  0.11375131     0.35500
C1892       C  0.74775830  0.13255122  0.08523966     0.35500
C1893       C  0.82557640  0.09287115  0.16334821    -0.22000
C1894       C  0.78729876  0.09399736  0.16144877    -0.22000
C1895       C  0.85937792  0.18593153  0.05900946    -0.22000
C1896       C  0.82110535  0.19038237  0.05750421    -0.22000
C1897       C  0.92923980  0.08382297  0.11401861    -0.23100
C1898       C  0.93307758  0.09529287  0.09504245    -0.23100
C1899       C  0.70475713  0.10543646  0.10477806    -0.23100
C1900       C  0.71039221  0.12059193  0.08662282    -0.23100
C1901       C  0.88026095  0.09174370  0.14008997    -0.18400
C1902       C  0.74476053  0.09811522  0.13339066    -0.18400
C1903       C  0.76376839  0.15539974  0.07019258    -0.18400
C1904       C  0.89836234  0.13985470  0.07559010    -0.18400
H1905       H  0.84000744  0.09063297  0.17690644     0.14500
H1906       H  0.76675822  0.09291218  0.17338015     0.14500
H1907       H  0.88142599  0.20262790  0.05184826     0.14500
H1908       H  0.80797078  0.21115756  0.04896320     0.14500
H1909       H  0.94980588  0.06902436  0.12189241     0.12800
H1910       H  0.95760984  0.09178207  0.08559524     0.12800
H1911       H  0.67815605  0.09488542  0.11080778     0.12800
H1912       H  0.68895597  0.12389831  0.07601216     0.12800
H1913       H  0.81675189  0.09293413  0.11652936     0.26000
H1914       H  0.82447194  0.11694610  0.08410869     0.26000
N1915       N  0.80774858  0.34560440  0.14549460    -0.36700
N1916       N  0.86713069  0.35532255  0.11500869    -0.57300
N1917       N  0.81372092  0.34394037  0.08461926    -0.36700
N1918       N  0.75379005  0.33339541  0.11558957    -0.57300
C1919       C  0.83606849  0.35848645  0.15664251     0.26900
C1920       C  0.77562628  0.34618101  0.15666945     0.26900
C1921       C  0.84549125  0.33029917  0.07620329     0.26900
C1922       C  0.78423792  0.32708369  0.07580193     0.26900
C1923       C  0.88677567  0.36779257  0.13041568     0.35500
C1924       C  0.89037092  0.35840020  0.09906513     0.35500
C1925       C  0.73102269  0.32602240  0.13125508     0.35500
C1926       C  0.73325485  0.32609219  0.09979798     0.35500
C1927       C  0.82210018  0.36455382  0.17550963    -0.22000
C1928       C  0.78403673  0.35772225  0.17538475    -0.22000
C1929       C  0.83597969  0.30370229  0.06230690    -0.22000
C1930       C  0.79726117  0.30088609  0.06248141    -0.22000
C1931       C  0.92252013  0.37972760  0.12410739    -0.23100
C1932       C  0.92482155  0.37363652  0.10428625    -0.23100
C1933       C  0.69649666  0.31205069  0.12543472    -0.23100
C1934       C  0.69813255  0.31132750  0.10546969    -0.23100
C1935       C  0.87347780  0.36810494  0.15016606    -0.18400
C1936       C  0.73874343  0.33763349  0.15040487    -0.18400
C1937       C  0.74598362  0.33358606  0.08049204    -0.18400
C1938       C  0.88269440  0.34166028  0.08077293    -0.18400
H1939       H  0.83732261  0.37474351  0.18797603     0.14500
H1940       H  0.76482075  0.36137721  0.18770954     0.14500
H1941       H  0.85492625  0.28733452  0.05337260     0.14500
H1942       H  0.78058169  0.28158305  0.05386566     0.14500
H1943       H  0.94496813  0.39085847  0.13292895     0.12800
H1944       H  0.94945740  0.37840476  0.09491935     0.12800
H1945       H  0.67239587  0.30417621  0.13464005     0.12800
H1946       H  0.67580102  0.30122655  0.09629951     0.12800
H1947       H  0.81052938  0.33667055  0.13115675     0.26000
H1948       H  0.81186489  0.36554246  0.09483826     0.26000
C1949       C  0.69825271  0.16070716  0.82128952    -0.02000
C1950       C  0.72505206  0.13969253  0.83057460     0.07700
C1951       C  0.72816462  0.10153738  0.82609243    -0.02100
C1952       C  0.70586899  0.08484985  0.81174604    -0.02100
C1953       C  0.67828041  0.10553332  0.80285659     0.07800
C1954       C  0.67409487  0.14330299  0.80788456    -0.02300
Br1955     Br  0.63543228  0.17119413  0.79622515    -0.00800
Br1956     Br  0.69478817  0.21315492  0.82692463    -0.00900
Br1957     Br  0.71325027  0.03348170  0.80464790    -0.00900
Br1958     Br  0.76323693  0.07201386  0.83968735    -0.00800
C1959       C  0.92590909  0.11986539  0.83547360    -0.02000
C1960       C  0.91768247  0.15700212  0.83147327     0.07700
C1961       C  0.93381380  0.17458765  0.81488121    -0.02100
C1962       C  0.95616492  0.15420864  0.80159114    -0.02100
C1963       C  0.96265219  0.11646360  0.80507701     0.07800
C1964       C  0.94805991  0.09950093  0.82224337    -0.02300
Br1965     Br  0.95594189  0.04758215  0.82715286    -0.00800
Br1966     Br  0.90530061  0.09624787  0.85874419    -0.00900
Br1967     Br  0.97743827  0.17765280  0.77849074    -0.00900
Br1968     Br  0.92435127  0.22615901  0.81036685    -0.00800
C1969       C  0.70244401  0.37454976  0.82955613    -0.02000
C1970       C  0.71225822  0.40124787  0.84380882     0.07700
C1971       C  0.69643957  0.43645846  0.84397618    -0.02100
C1972       C  0.67061293  0.44522175  0.82985234    -0.02100
C1973       C  0.66087896  0.41850443  0.81536686     0.07800
C1974       C  0.67676298  0.38321446  0.81532111    -0.02300
Br1975     Br  0.66220114  0.34630929  0.79614019    -0.00800
Br1976     Br  0.72395718  0.32604687  0.82976231    -0.00900
Br1977     Br  0.64990734  0.49425196  0.83062413    -0.00900
Br1978     Br  0.71085172  0.47275397  0.86355387    -0.00800
C1979       C  0.89646608  0.35789156  0.82238104    -0.02000
C1980       C  0.89955228  0.36759542  0.84222849     0.07700
C1981       C  0.92963476  0.39077936  0.84808142    -0.02100
C1982       C  0.95277266  0.40933733  0.83407551    -0.02100
C1983       C  0.94754971  0.40256213  0.81384464     0.07800
C1984       C  0.92099741  0.37461404  0.80826826    -0.02300
Br1985     Br  0.91858849  0.35801719  0.78151560    -0.00800
Br1986     Br  0.85709276  0.32333713  0.81454837    -0.00900
Br1987     Br  0.98846196  0.44647570  0.84353036    -0.00900
Br1988     Br  0.93711527  0.39928873  0.87556424    -0.00800
C1989       C  0.70870543  0.19560946  0.06417463    -0.02000
C1990       C  0.73732285  0.17311383  0.05647811     0.07700
C1991       C  0.73667278  0.16311515  0.03652007    -0.02100
C1992       C  0.70798762  0.17573772  0.02453631    -0.02100
C1993       C  0.67757503  0.19597034  0.03262350     0.07800
C1994       C  0.67746362  0.20360816  0.05299237    -0.02300
Br1995     Br  0.63385948  0.22098017  0.06697350    -0.00800
Br1996     Br  0.71249450  0.21578162  0.09032704    -0.00900
Br1997     Br  0.70902827  0.16196801  0.99732218    -0.00900
Br1998     Br  0.77440075  0.13095984  0.02566714    -0.00800
C1999       C  0.97293840  0.14743749  0.03465964    -0.02000
C2000       C  0.00201843  0.16814334  0.04404219     0.07700
C2001       C  0.99891680  0.17330417  0.06431727    -0.02100
C2002       C  0.96417230  0.16761175  0.07416594    -0.02100
C2003       C  0.93364186  0.15053198  0.06442175     0.07800
C2004       C  0.93901568  0.13843186  0.04496293    -0.02300
Br2005     Br  0.90022199  0.10854223  0.03265474    -0.00800
Br2006     Br  0.97942483  0.12858641  0.00833672    -0.00900
Br2007     Br  0.95894707  0.18379573  0.10101033    -0.00900
Br2008     Br  0.53468915  0.18322850  0.07946742    -0.00800
C2009       C  0.68099283  0.35174848  0.06974129    -0.02000
C2010       C  0.71725072  0.33892988  0.06501405     0.07700
C2011       C  0.72364965  0.32892274  0.04549679    -0.02100
C2012       C  0.69386266  0.31302919  0.03509936    -0.02100
C2013       C  0.65629171  0.31461278  0.04296101     0.07800
C2014       C  0.65005931  0.33784258  0.05934214    -0.02300
Br2015     Br  0.60000094  0.35160594  0.06724882    -0.00800
Br2016     Br  0.67463937  0.39091225  0.08873442    -0.00900
Br2017     Br  0.70804438  0.29019813  0.01064914    -0.00900
Br2018     Br  0.76623393  0.35092626  0.03113967    -0.00800
C2019       C  0.95131656  0.33311176  0.03629294    -0.02000
C2020       C  0.97545178  0.30572850  0.04273556     0.07700
C2021       C  0.97147712  0.29412459  0.06221804    -0.02100
C2022       C  0.94032199  0.30403369  0.07400255    -0.02100
C2023       C  0.91516366  0.33035657  0.06752958     0.07800
C2024       C  0.92189164  0.34611516  0.04883683    -0.02300
Br2025     Br  0.89149891  0.38605645  0.04069562    -0.00800
Br2026     Br  0.96012849  0.35422809  0.01085423    -0.00900
Br2027     Br  0.93133809  0.27963997  0.09870473    -0.00900
Br2028     Br  0.52123666  0.27520007  0.07429316    -0.00800
C2029       C  0.63284937  0.36195176  0.94879675    -0.02000
C2030       C  0.64242087  0.34578814  0.96655825     0.07700
C2031       C  0.67533408  0.36023668  0.97500309    -0.02100
C2032       C  0.70403203  0.37622698  0.96268758    -0.02100
C2033       C  0.69924030  0.37459431  0.94240085     0.07800
C2034       C  0.66160050  0.37924612  0.93725167    -0.02300
Br2035     Br  0.64954506  0.41727659  0.91903057    -0.00800
Br2036     Br  0.58195379  0.36233610  0.94059894    -0.00900
Br2037     Br  0.73527254  0.41673545  0.97244664    -0.00900
Br2038     Br  0.67163904  0.37389064  0.00203154    -0.00800
C2039       C  0.95856802  0.29082934  0.93799358    -0.02000
C2040       C  0.94884478  0.28627871  0.96126037     0.07700
C2041       C  0.90543759  0.27764457  0.96842952    -0.02100
C2042       C  0.87215949  0.27450253  0.95286188    -0.02100
C2043       C  0.88049765  0.28260075  0.92968966     0.07800
C2044       C  0.92495475  0.28918612  0.92230415    -0.02300
Br2045     Br  0.94039804  0.30438371  0.89645280    -0.00800
Br2046     Br  0.00920609  0.29821919  0.92840269    -0.00900
Br2047     Br  0.82370415  0.25608545  0.96253360    -0.00900
Br2048     Br  0.89256006  0.27684369  0.99586900    -0.00800
C2049       C  0.69808871  0.16046494  0.93970296    -0.02000
C2050       C  0.71921795  0.18780005  0.92919401     0.07700
C2051       C  0.70612788  0.22403924  0.92865200    -0.02100
C2052       C  0.67065683  0.23228117  0.93671286    -0.02100
C2053       C  0.64953068  0.20579530  0.94811781     0.07800
C2054       C  0.66387453  0.16953767  0.94953397    -0.02300
Br2055     Br  0.63525543  0.13093890  0.96318650    -0.00800
Br2056     Br  0.71596379  0.11058205  0.94014242    -0.00900
Br2057     Br  0.65103418  0.27911064  0.92978663    -0.00900
Br2058     Br  0.73667991  0.26217483  0.91557969    -0.00800
C2059       C  0.94116371  0.21439380  0.95668596    -0.02000
C2060       C  0.97339510  0.19490042  0.95110873     0.07700
C2061       C  0.97236833  0.17572155  0.93367817    -0.02100
C2062       C  0.93955667  0.17743871  0.92324542    -0.02100
C2063       C  0.91562592  0.20909469  0.92583791     0.07800
C2064       C  0.92137615  0.23561572  0.94237359    -0.02300
Br2065     Br  0.90884585  0.33657427  0.94849127    -0.00800
Br2066     Br  0.91278922  0.19020401  0.97743271    -0.00900
Br2067     Br  0.92703454  0.13444527  0.90722432    -0.00900
Br2068     Br  0.01331968  0.14516077  0.92541263    -0.00800
C2069       C  0.95003137  0.37283749  0.18782109    -0.02000
C2070       C  0.94719034  0.40991771  0.19523148     0.07700
C2071       C  0.91797249  0.43187926  0.18798206    -0.02100
C2072       C  0.89560673  0.41875192  0.17266724    -0.02100
C2073       C  0.89969440  0.38269573  0.16518018     0.07800
C2074       C  0.92625431  0.35955126  0.17299052    -0.02300
Br2075     Br  0.92825112  0.30862475  0.16378318    -0.00800
Br2076     Br  0.98240904  0.33722551  0.19886209    -0.00900
Br2077     Br  0.85702268  0.44933952  0.16244999    -0.00900
Br2078     Br  0.90403253  0.47889165  0.19927168    -0.00800
C2079       C  0.68654520  0.38063804  0.15897897    -0.02000
C2080       C  0.70616787  0.34839253  0.16335233     0.07700
C2081       C  0.69581214  0.32838006  0.18038516    -0.02100
C2082       C  0.67078622  0.34397325  0.19436032    -0.02100
C2083       C  0.65359946  0.37765353  0.19037123     0.07800
C2084       C  0.65810926  0.39305798  0.17177325    -0.02300
Br2085     Br  0.62350227  0.42957816  0.16369756    -0.00800
Br2086     Br  0.70151587  0.41098157  0.13695845    -0.00900
Br2087     Br  0.66136051  0.32043109  0.21916454    -0.00900
Br2088     Br  0.71717861  0.28088170  0.18484214    -0.00800
C2089       C  0.92005166  0.11550082  0.16772019    -0.02000
C2090       C  0.90712255  0.08547056  0.15599875     0.07700
C2091       C  0.92032992  0.04967984  0.15914776    -0.02100
C2092       C  0.94687244  0.04406097  0.17352563    -0.02100
C2093       C  0.95836825  0.07361330  0.18600857     0.07800
C2094       C  0.94487540  0.10943342  0.18296350    -0.02300
Br2095     Br  0.95803455  0.14956220  0.20055586    -0.00800
Br2096     Br  0.90266963  0.16480128  0.16324499    -0.00900
Br2097     Br  0.49046053  0.00949844  0.17094204    -0.00900
Br2098     Br  0.90087961  0.00805327  0.14413743    -0.00800
C2099       C  0.66181496  0.05432709  0.16185745    -0.02000
C2100       C  0.65849926  0.08027833  0.17719796     0.07700
C2101       C  0.67647201  0.11558491  0.17542576    -0.02100
C2102       C  0.70212837  0.12244174  0.15982176    -0.02100
C2103       C  0.71133445  0.09338226  0.14675408     0.07800
C2104       C  0.68998209  0.05968168  0.14726574    -0.02300
Br2105     Br  0.70029306  0.02041798  0.12872911    -0.00800
Br2106     Br  0.62462984  0.01438979  0.15981874    -0.00900
Br2107     Br  0.72637911  0.17091669  0.15686699    -0.00900
Br2108     Br  0.66695410  0.15427170  0.19442022    -0.00800
C2109       C  0.70863812  0.13542321  0.67008948    -0.02000
C2110       C  0.68721267  0.13204585  0.65310706     0.07700
C2111       C  0.66303447  0.10064193  0.65071796    -0.02100
C2112       C  0.65776189  0.07513652  0.66591047    -0.02100
C2113       C  0.67264676  0.08323210  0.68446009     0.07800
C2114       C  0.70071570  0.11160614  0.68600692    -0.02300
Br2115     Br  0.72677197  0.11986068  0.70991791    -0.00800
Br2116     Br  0.74642349  0.17486633  0.67208791    -0.00900
Br2117     Br  0.62953621  0.02919048  0.66096437    -0.00900
Br2118     Br  0.63280930  0.09435516  0.62790192    -0.00800
C2119       C  0.68189913  0.33872858  0.67524304    -0.02000
C2120       C  0.65286953  0.31968418  0.66531486     0.07700
C2121       C  0.61559111  0.32157981  0.67251509    -0.02100
C2122       C  0.60765698  0.34095088  0.68990248    -0.02100
C2123       C  0.63572151  0.36367804  0.69863423     0.07800
C2124       C  0.67321725  0.36223522  0.69127402    -0.02300
Br2125     Br  0.71255799  0.39387717  0.70168103    -0.00800
Br2126     Br  0.73344221  0.33308539  0.66652658    -0.00900
Br2127     Br  0.55811844  0.33516137  0.70203176    -0.00900
Br2128     Br  0.57501162  0.29844007  0.65823083    -0.00800
C2129       C  0.90502023  0.12821423  0.67862790    -0.02000
C2130       C  0.92712049  0.15562406  0.66873427     0.07700
C2131       C  0.96555862  0.16030094  0.67265253    -0.02100
C2132       C  0.98174463  0.13805692  0.68658919    -0.02100
C2133       C  0.96019621  0.10927573  0.69583454     0.07800
C2134       C  0.92158745  0.10461650  0.69193451    -0.02300
Br2135     Br  0.89140877  0.06502539  0.70386037    -0.00800
Br2136     Br  0.85204035  0.12313085  0.67382123    -0.00900
Br2137     Br  0.55199653  0.14240268  0.68613536    -0.00900
Br2138     Br  0.99597236  0.19771417  0.65898157    -0.00800
C2139       C  0.95167303  0.39509447  0.67682415    -0.02000
C2140       C  0.94058716  0.39709206  0.69680446     0.07700
C2141       C  0.90789719  0.37669417  0.70313360    -0.02100
C2142       C  0.88890221  0.35269874  0.68996905    -0.02100
C2143       C  0.90507047  0.34543992  0.67130693     0.07800
C2144       C  0.93694146  0.36674034  0.66491854    -0.02300
Br2145     Br  0.96240336  0.35626160  0.64022911    -0.00800
Br2146     Br  0.98241385  0.43388813  0.66436973    -0.00900
Br2147     Br  0.84157766  0.32871857  0.69759915    -0.00900
Br2148     Br  0.88945251  0.38017539  0.72974497    -0.00800
C2149       C  0.88887384  0.13275303  0.55899174    -0.02000
C2150       C  0.86475056  0.14532849  0.57417943     0.07700
C2151       C  0.83360658  0.12243378  0.57982695    -0.02100
C2152       C  0.82465406  0.08914221  0.56954584    -0.02100
C2153       C  0.84674291  0.07800163  0.55283394     0.07800
C2154       C  0.88046951  0.09913700  0.54865005    -0.02300
Br2155     Br  0.91782765  0.08049420  0.53042878    -0.00800
Br2156     Br  0.93468645  0.16094048  0.55321006    -0.00900
Br2157     Br  0.78327618  0.05856228  0.58013803    -0.00900
Br2158     Br  0.80444060  0.13625515  0.60281761    -0.00800
C2159       C  0.86820161  0.39221045  0.55197091    -0.02000
C2160       C  0.83310810  0.40974634  0.55407154     0.07700
C2161       C  0.80707046  0.39565037  0.56874866    -0.02100
C2162       C  0.81406387  0.36264859  0.57885344    -0.02100
C2163       C  0.84809868  0.34422285  0.57580629     0.07800
C2164       C  0.87561528  0.36011259  0.56290947    -0.02300
Br2165     Br  0.92490382  0.33939512  0.56161915    -0.00800
Br2166     Br  0.90827667  0.41401093  0.53586105    -0.00900
Br2167     Br  0.77826084  0.34425849  0.59861961    -0.00900
Br2168     Br  0.76258688  0.42184951  0.57714737    -0.00800
C2169       C  0.68395765  0.08754061  0.54014929    -0.02000
C2170       C  0.71614041  0.09490525  0.52802140     0.07700
C2171       C  0.72800133  0.13245886  0.52525045    -0.02100
C2172       C  0.71532136  0.16012217  0.53818081    -0.02100
C2173       C  0.68730978  0.15157526  0.55254591     0.07800
C2174       C  0.66915632  0.11611252  0.55207328    -0.02300
Br2175     Br  0.62564723  0.10619673  0.56889677    -0.00800
Br2176     Br  0.66007585  0.03895129  0.54112645    -0.00900
Br2177     Br  0.74024950  0.20813345  0.53721185    -0.00900
Br2178     Br  0.76167094  0.14684776  0.50371926    -0.00800
C2179       C  0.66255330  0.36973444  0.55964564    -0.02000
C2180       C  0.68304480  0.33780148  0.56324783     0.07700
C2181       C  0.71564808  0.33118677  0.55188606    -0.02100
C2182       C  0.72643831  0.35454945  0.53645749    -0.02100
C2183       C  0.71025690  0.38991255  0.53494105     0.07800
C2184       C  0.67685524  0.39658651  0.54614773    -0.02300
Br2185     Br  0.64898174  0.44090566  0.54276208    -0.00800
Br2186     Br  0.61516606  0.37661328  0.57331900    -0.00900
Br2187     Br  0.76134072  0.33508867  0.51690301    -0.00900
Br2188     Br  0.74833403  0.29213140  0.55859247    -0.00800
C2189       C  0.68319108  0.15533598  0.32667800    -0.02000
C2190       C  0.65315560  0.15580810  0.34056983     0.07700
C2191       C  0.62276420  0.12997236  0.33881081    -0.02100
C2192       C  0.62099895  0.10623154  0.32235205    -0.02100
C2193       C  0.64889886  0.10909695  0.30737863     0.07800
C2194       C  0.68096085  0.13215485  0.31007093    -0.02300
Br2195     Br  0.72151173  0.13220326  0.29084250    -0.00800
Br2196     Br  0.72743720  0.18664522  0.33048141    -0.00900
Br2197     Br  0.58035287  0.06973647  0.32008844    -0.00900
Br2198     Br  0.58331374  0.12759414  0.35862669    -0.00800
C2199       C  0.67604859  0.33624168  0.32249748    -0.02000
C2200       C  0.66824906  0.34762198  0.34207922     0.07700
C2201       C  0.66961725  0.38687767  0.34531523    -0.02100
C2202       C  0.66258125  0.41116990  0.32991289    -0.02100
C2203       C  0.65978231  0.39717349  0.31084033     0.07800
C2204       C  0.66891161  0.36003546  0.30699782    -0.02300
Br2205     Br  0.67199484  0.34172269  0.28048147    -0.00800
Br2206     Br  0.70473851  0.29250507  0.31672617    -0.00900
Br2207     Br  0.65634046  0.46346628  0.33499679    -0.00900
Br2208     Br  0.69503157  0.40906568  0.36708379    -0.00800
C2209       C  0.71751702  0.10682475  0.45897509    -0.02000
C2210       C  0.74900601  0.08886444  0.45061888     0.07700
C2211       C  0.76521034  0.10298664  0.43301742    -0.02100
C2212       C  0.75440145  0.13741253  0.42580427    -0.02100
C2213       C  0.72263535  0.15493058  0.43391389     0.07800
C2214       C  0.70400036  0.13919250  0.45042259    -0.02300
Br2215     Br  0.65863827  0.16098050  0.46062230    -0.00800
Br2216     Br  0.68895599  0.08395857  0.48018046    -0.00900
Br2217     Br  0.78208228  0.15998997  0.40410050    -0.00900
Br2218     Br  0.79746046  0.07303627  0.41679324    -0.00800
C2219       C  0.72119657  0.41245668  0.44139342    -0.02000
C2220       C  0.71222545  0.41500157  0.46133741     0.07700
C2221       C  0.68774353  0.38741017  0.46962229    -0.02100
C2222       C  0.67684683  0.35538721  0.45868629    -0.02100
C2223       C  0.69124899  0.35042481  0.43947237     0.07800
C2224       C  0.71386986  0.37930849  0.43106561    -0.02300
Br2225     Br  0.73897157  0.37199990  0.40627565    -0.00800
Br2226     Br  0.73999591  0.45584103  0.42785675    -0.00900
Br2227     Br  0.64270607  0.31841968  0.47001989    -0.00900
Br2228     Br  0.66405799  0.39670639  0.49445857    -0.00800
C2229       C  0.94713773  0.11684064  0.31963149    -0.02000
C2230       C  0.98474856  0.11743110  0.31192142     0.07700
C2231       C  0.01080429  0.14384343  0.32010474    -0.02100
C2232       C  0.00058681  0.16592718  0.33642167    -0.02100
C2233       C  0.96344502  0.16512834  0.34371223     0.07800
C2234       C  0.93671719  0.14084738  0.33521177    -0.02300
Br2235     Br  0.88471545  0.14334358  0.34397215    -0.00800
Br2236     Br  0.90743587  0.08822639  0.30740563    -0.00900
Br2237     Br  0.03613939  0.20118543  0.34775083    -0.00900
Br2238     Br  0.05920834  0.15522212  0.30815725    -0.00800
C2239       C  0.95522954  0.38154862  0.34554293    -0.02000
C2240       C  0.92774566  0.35646317  0.33828258     0.07700
C2241       C  0.91445920  0.36107365  0.31932513    -0.02100
C2242       C  0.93161110  0.38801139  0.30697479    -0.02100
C2243       C  0.96134851  0.41083882  0.31375564     0.07800
C2244       C  0.97111278  0.40949707  0.33342061    -0.02300
Br2245     Br  0.54357823  0.39785420  0.33618952    -0.00800
Br2246     Br  0.97322952  0.37602116  0.37152511    -0.00900
Br2247     Br  0.91535414  0.39291668  0.28060536    -0.00900
Br2248     Br  0.87455376  0.32881314  0.30986413    -0.00800
C2249       C  0.89543279  0.17089616  0.45866841    -0.02000
C2250       C  0.89342655  0.16404131  0.43835123     0.07700
C2251       C  0.88600057  0.12687771  0.43212064    -0.02100
C2252       C  0.88026211  0.09838059  0.44591885    -0.02100
C2253       C  0.87269826  0.10679066  0.46569480     0.07800
C2254       C  0.88243501  0.14347365  0.47219159    -0.02300
Br2255     Br  0.88020678  0.15680848  0.49955455    -0.00800
Br2256     Br  0.91802006  0.21695457  0.46809747    -0.00900
Br2257     Br  0.88990239  0.04849631  0.43804332    -0.00900
Br2258     Br  0.88120499  0.11376604  0.40483611    -0.00800
C2259       C  0.87799527  0.35942594  0.44401594    -0.02000
C2260       C  0.86323940  0.35779387  0.42504442     0.07700
C2261       C  0.84773668  0.39094369  0.41796545    -0.02100
C2262       C  0.84479136  0.42269119  0.43017990    -0.02100
C2263       C  0.85141375  0.42078049  0.45041247     0.07800
C2264       C  0.86867418  0.38849692  0.45713070    -0.00300
Br2265     Br  0.87730478  0.38078920  0.48441199    -0.00800
Br2266     Br  0.91532666  0.32499964  0.45165182    -0.00900
Br2267     Br  0.83358230  0.46926308  0.41834812    -0.00900
Br2268     Br  0.82913252  0.39526604  0.39184425    -0.00800
N2269       N  0.94064801  0.75985507  0.36310873    -0.36700
N2270       N  0.92794392  0.70233058  0.39309349    -0.57300
N2271       N  0.89307128  0.75535333  0.41974399    -0.36700
N2272       N  0.90201174  0.83691517  0.38784514    -0.57300
C2273       C  0.95301193  0.73013893  0.35297435     0.26900
C2274       C  0.94230508  0.78919620  0.35093895     0.26900
C2275       C  0.88279220  0.72334561  0.42870495     0.26900
C2276       C  0.87121498  0.78259608  0.42691569     0.26900
C2277       C  0.95230492  0.68527012  0.38064741     0.35500
C2278       C  0.92861021  0.68440833  0.41036566     0.35500
C2279       C  0.89741402  0.82469197  0.36935953     0.35500
C2280       C  0.87519910  0.81842667  0.39853195     0.35500
C2281       C  0.96260867  0.74114895  0.33400723    -0.22000
C2282       C  0.95756890  0.77878804  0.33304156    -0.22000
C2283       C  0.85302551  0.73048288  0.44178504    -0.22000
C2284       C  0.84614157  0.76828156  0.44086606    -0.22000
C2285       C  0.96882772  0.65648324  0.39005767    -0.23100
C2286       C  0.95461592  0.65653498  0.40898994    -0.23100
C2287       C  0.86757563  0.79909185  0.36846417    -0.23100
C2288       C  0.85361173  0.79489404  0.38701203    -0.23100
C2289       C  0.95869763  0.69429936  0.36066668    -0.18400
C2290       C  0.92712393  0.82391970  0.35574904    -0.18400
C2291       C  0.87278609  0.81858922  0.41889570    -0.18400
C2292       C  0.90202501  0.68933762  0.42612886    -0.18400
H2293       H  0.97310503  0.72422679  0.32206130     0.14500
H2294       H  0.96265592  0.79577741  0.32027687     0.14500
H2295       H  0.83802891  0.71069501  0.45116013     0.14500
H2296       H  0.82443710  0.78299772  0.44881234     0.14500
H2297       H  0.98911107  0.63756085  0.38391712     0.12800
H2298       H  0.96111438  0.63698014  0.42017131     0.12800
H2299       H  0.85966498  0.78213831  0.35603865     0.12800
H2300       H  0.83144903  0.77546148  0.39176915     0.12800
H2301       H  0.93199007  0.76105842  0.37767894     0.26000
H2302       H  0.91588869  0.75984770  0.41012703     0.26000
N2303       N  0.66624750  0.74853960  0.35731797    -0.36700
N2304       N  0.67306851  0.80680715  0.38709696    -0.57300
N2305       N  0.69372260  0.75293767  0.41581950    -0.36700
N2306       N  0.68834658  0.69461716  0.38545157    -0.57300
C2307       C  0.66275599  0.77901628  0.34618161     0.26900
C2308       C  0.67052370  0.71889472  0.34518250     0.26900
C2309       C  0.70580931  0.78537216  0.42424492     0.26900
C2310       C  0.71181947  0.72481418  0.42410547     0.26900
C2311       C  0.65678959  0.82611657  0.37306149     0.35500
C2312       C  0.67147703  0.82791700  0.40349179     0.35500
C2313       C  0.68107222  0.67092624  0.37042662     0.35500
C2314       C  0.69258481  0.67340927  0.40135398     0.35500
C2315       C  0.66364527  0.76847110  0.32669144    -0.22000
C2316       C  0.66820345  0.73063185  0.32605955    -0.22000
C2317       C  0.73158865  0.77756667  0.43825213    -0.22000
C2318       C  0.73515307  0.73940183  0.43826190    -0.22000
C2319       C  0.64416963  0.85948655  0.38066652    -0.23100
C2320       C  0.65301463  0.86039317  0.40001696    -0.23100
C2321       C  0.68149313  0.63455248  0.37677942    -0.23100
C2322       C  0.68755203  0.63611976  0.39636170    -0.23100
C2323       C  0.65660888  0.81572450  0.35311664    -0.18400
C2324       C  0.67514651  0.68139614  0.35088345    -0.18400
C2325       C  0.70730515  0.68635529  0.41931890    -0.18400
C2326       C  0.69293366  0.82150517  0.42005615    -0.18400
H2327       H  0.66067471  0.78608314  0.31418786     0.14500
H2328       H  0.66946409  0.71379396  0.31292197     0.14500
H2329       H  0.74626076  0.79728862  0.44755054     0.14500
H2330       H  0.75327206  0.72417475  0.44745362     0.14500
H2331       H  0.63102311  0.88142480  0.37296831     0.12800
H2332       H  0.64867872  0.88338689  0.41004124     0.12800
H2333       H  0.67788359  0.60931191  0.36825278     0.12800
H2334       H  0.68991024  0.61224235  0.40563954     0.12800
H2335       H  0.66262819  0.74764077  0.37233009     0.26000
H2336       H  0.67200081  0.74968527  0.40609835     0.26000
O2337       O  0.85858671  0.95614910  0.48380098    -0.80300
O2338       O  0.83923473  0.53904734  0.52017713    -0.80300
O2339       O  0.83214027  0.54069950  0.47277732    -0.80300
O2340       O  0.79799772  0.95560043  0.54351736    -0.80200
O2341       O  0.82419092  0.58883333  0.49244809    -0.80400
O2342       O  0.84644975  0.94495029  0.52408220    -0.80300
O2343       O  0.79443824  0.53171200  0.54231846    -0.80300
O2344       O  0.82574390  0.97175853  0.45959808    -0.80300
C2345       C  0.85241354  0.95323580  0.46587616     1.09400
C2346       C  0.82668897  0.54543371  0.53738017     1.09300
C2347       C  0.84082257  0.57518176  0.47775565     1.09500
C2348       C  0.82915902  0.93978729  0.54035874     1.09300
O2349       O  0.77516270  0.91286721  0.51649683    -0.80300
O2350       O  0.75982544  0.55944296  0.48014275    -0.80300
O2351       O  0.74989567  0.97299662  0.47217725    -0.80300
O2352       O  0.72365471  0.53113699  0.52168911    -0.80200
O2353       O  0.76909139  0.57208129  0.51770539    -0.80300
O2354       O  0.78324849  0.92354682  0.47765897    -0.80300
O2355       O  0.73149737  0.95355777  0.52066967    -0.80200
O2356       O  0.76873757  0.52949618  0.45242786    -0.80300
Co2357     Co  0.81574221  0.93846954  0.50056274     1.51500
Co2358     Co  0.80148572  0.54348424  0.49968795     1.51700
Co2359     Co  0.78134765  0.50625367  0.47588176     1.51600
Co2360     Co  0.75888203  0.49308976  0.53068519     1.51500
O2361       O  0.78566726  0.49010551  0.50384449    -1.42200
C2362       C  0.74180260  0.92037778  0.52157008     1.09400
C2363       C  0.75701104  0.55790009  0.46135119     1.09500
C2364       C  0.75515096  0.93827569  0.47000968     1.09400
C2365       C  0.73513186  0.56474961  0.52207359     1.09400
N2366       N  0.88208130  0.74263973  0.58877627    -0.36700
N2367       N  0.88472002  0.79814966  0.62045937    -0.57300
N2368       N  0.90707537  0.74141578  0.64761225    -0.36700
N2369       N  0.90466786  0.68565510  0.61614782    -0.57300
C2370       C  0.86796616  0.77219262  0.57950920     0.26900
C2371       C  0.87529398  0.71144212  0.57782638     0.26900
C2372       C  0.91404324  0.77234011  0.65855931     0.26900
C2373       C  0.92239987  0.71265085  0.65672374     0.26900
C2374       C  0.87452682  0.82078246  0.60607276     0.35500
C2375       C  0.88811909  0.81974041  0.63663858     0.35500
C2376       C  0.90107206  0.66377989  0.60011394     0.35500
C2377       C  0.91707477  0.66385258  0.63039215     0.35500
C2378       C  0.85337055  0.75975312  0.56202699    -0.22000
C2379       C  0.85763767  0.72163163  0.56105805    -0.22000
C2380       C  0.93286124  0.76279649  0.67505708    -0.22000
C2381       C  0.93738650  0.72524672  0.67412795    -0.22000
C2382       C  0.87106496  0.85673637  0.61335473    -0.23100
C2383       C  0.87871413  0.85583382  0.63268235    -0.23100
C2384       C  0.91191606  0.62804260  0.60419784    -0.23100
C2385       C  0.92211491  0.62814673  0.62328135    -0.23100
C2386       C  0.86701359  0.80990638  0.58654677    -0.18400
C2387       C  0.88428328  0.67400260  0.58250042    -0.18400
C2388       C  0.92507526  0.67558366  0.64963465    -0.18400
C2389       C  0.90453711  0.80919910  0.65419114    -0.18400
H2390       H  0.84019263  0.77630477  0.55126352     0.14500
H2391       H  0.84872376  0.70345205  0.54929880     0.14500
H2392       H  0.94271352  0.78095782  0.68660875     0.14500
H2393       H  0.95138771  0.70942088  0.68488754     0.14500
H2394       H  0.86383902  0.88142133  0.60564893     0.12800
H2395       H  0.87912427  0.87960007  0.64247949     0.12800
H2396       H  0.91185215  0.60407948  0.59453673     0.12800
H2397       H  0.93191295  0.60450978  0.63105881     0.12800
H2398       H  0.89722134  0.74407874  0.60140861     0.26000
H2399       H  0.89133854  0.73963613  0.63518045     0.26000
N2400       N  0.67821279  0.74239530  0.63923194    -0.36700
N2401       N  0.68613278  0.68815151  0.60842892    -0.57300
N2402       N  0.67920903  0.74550720  0.58036692    -0.36700
N2403       N  0.67113605  0.80086492  0.61050413    -0.57300
C2404       C  0.67049066  0.71026508  0.64882741     0.26900
C2405       C  0.66351188  0.76994259  0.65024027     0.26900
C2406       C  0.67405538  0.71504303  0.56893432     0.26900
C2407       C  0.66915820  0.77523315  0.57013444     0.26900
C2408       C  0.69537769  0.66749752  0.62371343     0.35500
C2409       C  0.69538206  0.66866927  0.59222534     0.35500
C2410       C  0.67435204  0.82168035  0.62688727     0.35500
C2411       C  0.67937244  0.82367186  0.59532444     0.35500
C2412       C  0.65071394  0.71749241  0.66607407    -0.22000
C2413       C  0.64710081  0.75517189  0.66719976    -0.22000
C2414       C  0.65981285  0.72546308  0.55129790    -0.22000
C2415       C  0.65690383  0.76357871  0.55202192    -0.22000
C2416       C  0.71099056  0.63468575  0.61724641    -0.23100
C2417       C  0.71092106  0.63543399  0.59722121    -0.23100
C2418       C  0.68352708  0.85823707  0.62214884    -0.23100
C2419       C  0.68754468  0.85933864  0.60214289    -0.23100
C2420       C  0.68276576  0.67488231  0.64295527    -0.18400
C2421       C  0.66651155  0.80821511  0.64587943    -0.18400
C2422       C  0.67762412  0.81253891  0.57549203    -0.18400
C2423       C  0.68641068  0.67913039  0.57321280    -0.18400
H2424       H  0.64054238  0.69782897  0.67698361     0.14500
H2425       H  0.63382061  0.76972878  0.67927312     0.14500
H2426       H  0.65394343  0.70769956  0.53886425     0.14500
H2427       H  0.64860823  0.78097987  0.54023911     0.14500
H2428       H  0.71953747  0.61183766  0.62603437     0.12800
H2429       H  0.71979437  0.61342035  0.58748791     0.12800
H2430       H  0.68717786  0.88158688  0.63204753     0.12800
H2431       H  0.69472031  0.88380855  0.59365225     0.12800
H2432       H  0.69583213  0.74589873  0.62696462     0.26000
H2433       H  0.69498448  0.74693460  0.59285752     0.26000
C2434       C  0.00396127  0.59579315  0.29633839     0.42300
N2435       N  0.53357187  0.57123777  0.26645685     0.01200
C2436       C  0.50691681  0.91446589  0.21269056    -0.06600
H2437       H  0.51526841  0.88825580  0.28313859     0.06700
C2438       C  0.64260755  0.95908205  0.28590576    -0.07000
Co2439     Co  0.99557446  0.99962834  0.25364437     0.74200
N2440       N  0.51353927  0.94062210  0.26837244    -0.26200
Co2441     Co  0.55691803  0.93858986  0.24718010     0.74100
C2442       C  0.62504070  0.92454125  0.29421272     0.42400
N2443       N  0.63989976  0.54142354  0.26424345     0.00800
N2444       N  0.59602853  0.94013014  0.26871894     0.01000
N2445       N  0.96716861  0.94886290  0.22094749    -0.47000
H2446       H  0.96779979  0.54098407  0.29764268     0.06700
N2447       N  0.48986312  0.96806303  0.26959390     0.01200
N2448       N  0.60216941  0.93693552  0.22633568     0.01000
C2449       C  0.64719385  0.91864563  0.20684509     0.42600
N2450       N  0.61618268  0.56821173  0.26151005    -0.25600
C2451       C  0.97067600  0.54617380  0.21834008    -0.06600
N2452       N  0.53279116  0.60040033  0.27842061    -0.46700
N2453       N  0.61195123  0.90968131  0.21403290    -0.47000
C2454       C  0.98461319  0.57476035  0.20506539     0.42400
N2455       N  0.49112126  0.96559756  0.22703948     0.01200
N2456       N  0.60938534  0.55298403  0.22013862    -0.25700
N2457       N  0.50867061  0.54496634  0.27151465    -0.26100
N2458       N  0.63610638  0.52889958  0.22216605     0.00900
H2459       H  0.59782120  0.59189544  0.19772249     0.06800
H2460       H  0.68589800  0.96706613  0.21675856     0.06800
N2461       N  0.51624703  0.93950961  0.22642126    -0.26200
N2462       N  0.62247271  0.96656638  0.27008070    -0.25800
N2463       N  0.52476183  0.55654912  0.22436622     0.01200
C2464       C  0.98332152  0.92901600  0.30101405     0.42600
C2465       C  0.62493871  0.59677678  0.27324202    -0.07100
N2466       N  0.62919024  0.96259285  0.22775162    -0.25800
H2467       H  0.66650763  0.97545516  0.29084220     0.06800
N2468       N  0.97326719  0.95883452  0.29097486    -0.47000
H2469       H  0.61046891  0.62257793  0.27410672     0.06800
C2470       C  0.65020861  0.55580237  0.19498211     0.42500
C2471       C  0.98821181  0.55912618  0.29027576    -0.06600
Co2472     Co  0.57106893  0.56313404  0.24277393     0.73800
N2473       N  0.66418570  0.55002141  0.27806222    -0.46700
C2474       C  0.97416056  0.91654026  0.21156537     0.42700
N2475       N  0.51729914  0.57413384  0.20796589    -0.46700
Co2476     Co  0.63734294  0.49387455  0.24624449     0.73900
C2477       C  0.65856266  0.95319318  0.21648755    -0.07100
C2478       C  0.50294409  0.91506725  0.28160577    -0.06600
N2479       N  0.49761534  0.53264708  0.22964422    -0.26200
N2480       N  0.59681121  0.91499421  0.28249589    -0.46900
H2481       H  0.51955287  0.88773731  0.21113814     0.06700
C2482       C  0.61534857  0.57067435  0.20320839    -0.07000
Cl2483     Cl  0.55928062  0.00706524  0.24654649    -0.50000
C2484       C  0.65647224  0.58491221  0.28432068     0.42500
H2485       H  0.94397641  0.53147561  0.21886870     0.06700
N2486       N  0.66109406  0.52995230  0.20754680    -0.46800
O2487       O  0.01648971  0.69210534  0.97706898    -0.80300
O2488       O  0.65943246  0.72356577  0.00288350    -0.80300
O2489       O  0.59580977  0.74540445  0.95493140    -0.80300
O2490       O  0.54297555  0.72181433  0.03972554    -0.80200
O2491       O  0.60865031  0.70258012  0.97569414    -0.80400
O2492       O  0.03929585  0.69338677  0.01502629    -0.80300
O2493       O  0.61449013  0.71544293  0.02533805    -0.80300
O2494       O  0.51968628  0.73262128  0.95575072    -0.80300
C2495       C  0.50456887  0.70210150  0.96113843     1.09400
C2496       C  0.64919035  0.71087808  0.01944308     1.09300
C2497       C  0.61279421  0.71585200  0.95869247     1.09500
C2498       C  0.03411099  0.70005279  0.03273350     1.09300
O2499       O  0.99132782  0.75868707  0.02224154    -0.80300
O2500       O  0.63394066  0.78032900  0.97900097    -0.80300
O2501       O  0.50605580  0.79790675  0.97621185    -0.80300
O2502       O  0.59722138  0.77860641  0.04454203    -0.80200
O2503       O  0.62553162  0.78525581  0.01568446    -0.80300
O2504       O  0.97417326  0.75515049  0.98460302    -0.80300
O2505       O  0.53385087  0.79556103  0.02509771    -0.80200
O2506       O  0.58383667  0.81383307  0.97724398    -0.80300
Co2507     Co  0.50629148  0.71875720  0.00071404     1.51500
Co2508     Co  0.61135181  0.74057656  0.99674008     1.51700
Co2509     Co  0.55217374  0.77161478  0.96806606     1.51600
Co2510     Co  0.57357297  0.75769402  0.02255954     1.51500
O2511       O  0.55572569  0.74756425  0.99502044    -1.42200
C2512       C  0.50060953  0.78343716  0.02913350     1.09400
C2513       C  0.61894611  0.81111775  0.97540136     1.09500
C2514       C  0.47514436  0.77917616  0.97673669     1.09400
C2515       C  0.62438362  0.79205011  0.03419976     1.09400
N2516       N  0.86010134  0.83460340  0.88935378    -0.36700
N2517       N  0.80634640  0.87502103  0.86321507    -0.57300
N2518       N  0.74494686  0.87284387  0.89082340    -0.36700
N2519       N  0.79144942  0.83071785  0.91748228    -0.57300
C2520       C  0.86864024  0.83161160  0.86996434     0.26900
C2521       C  0.85331831  0.79958099  0.89594940     0.26900
C2522       C  0.72761042  0.87216308  0.87364265     0.26900
C2523       C  0.72010447  0.85867144  0.90401865     0.26900
C2524       C  0.83977364  0.88334531  0.85457669     0.35500
C2525       C  0.78116415  0.89478145  0.85390373     0.35500
C2526       C  0.80836198  0.79891386  0.92212389     0.35500
C2527       C  0.75706051  0.82902378  0.92652890     0.35500
C2528       C  0.86470257  0.79481831  0.86410950    -0.22000
C2529       C  0.85327505  0.77508993  0.88043555    -0.22000
C2530       C  0.69187953  0.85626154  0.87576977    -0.22000
C2531       C  0.68754033  0.84666704  0.89500824    -0.22000
C2532       C  0.83614368  0.90988652  0.84026133    -0.23100
C2533       C  0.79849997  0.91659001  0.83958808    -0.23100
C2534       C  0.78251805  0.77533713  0.93130784    -0.23100
C2535       C  0.75082702  0.79494685  0.93524465    -0.23100
C2536       C  0.87115908  0.86169223  0.85696603    -0.18400
C2537       C  0.84469536  0.78936388  0.91537043    -0.18400
C2538       C  0.72818832  0.85395506  0.92358507    -0.18400
C2539       C  0.74258104  0.88852535  0.85664736    -0.18400
H2540       H  0.86655301  0.78355480  0.84951368     0.14500
H2541       H  0.84321660  0.74678457  0.88069733     0.14500
H2542       H  0.67126363  0.85200193  0.86464481     0.14500
H2543       H  0.66302163  0.83298903  0.90157402     0.14500
H2544       H  0.85774114  0.92090810  0.83029533     0.12800
H2545       H  0.78523604  0.93414026  0.82929477     0.12800
H2546       H  0.78597929  0.74690698  0.93486550     0.12800
H2547       H  0.72495494  0.78420705  0.94206006     0.12800
H2548       H  0.85943342  0.85912519  0.89762500     0.26000
H2549       H  0.77094826  0.88529930  0.89398829     0.26000
N2550       N  0.82239956  0.65960273  0.84789857    -0.36700
N2551       N  0.76079782  0.65515624  0.87619936    -0.57300
N2552       N  0.81102583  0.68725649  0.90588357    -0.36700
N2553       N  0.87363656  0.68848107  0.87741585    -0.57300
C2554       C  0.79426921  0.65066861  0.83574551     0.26900
C2555       C  0.85346967  0.66672507  0.83664760     0.26900
C2556       C  0.77977439  0.67796269  0.91692980     0.26900
C2557       C  0.84033044  0.69256463  0.91806546     0.26900
C2558       C  0.74213717  0.64167631  0.86062623     0.35500
C2559       C  0.73531017  0.65732367  0.89109722     0.35500
C2560       C  0.89874141  0.68439488  0.86240966     0.35500
C2561       C  0.89325019  0.70015821  0.89303357     0.35500
C2562       C  0.80765101  0.65260128  0.81656333    -0.22000
C2563       C  0.84507787  0.66244969  0.81715229    -0.22000
C2564       C  0.78925876  0.67715938  0.93632815    -0.22000
C2565       C  0.82726861  0.68597508  0.93702633    -0.22000
C2566       C  0.70484591  0.63406232  0.86586021    -0.23100
C2567       C  0.70040063  0.64446303  0.88506253    -0.23100
C2568       C  0.93458054  0.69331181  0.86835541    -0.23100
C2569       C  0.93116736  0.70356417  0.88759016    -0.23100
C2570       C  0.75723598  0.63910859  0.84134244    -0.18400
C2571       C  0.89017643  0.67186504  0.84344696    -0.18400
C2572       C  0.87874405  0.70225333  0.91271963    -0.18400
C2573       C  0.74270250  0.67095709  0.91009202    -0.18400
H2574       H  0.79230464  0.64660708  0.80347406     0.14500
H2575       H  0.86419098  0.66525753  0.80465599     0.14500
H2576       H  0.77071158  0.67101167  0.94873155     0.14500
H2577       H  0.84334150  0.68765138  0.95012006     0.14500
H2578       H  0.68279405  0.62342672  0.85663222     0.12800
H2579       H  0.67439997  0.64266896  0.89361780     0.12800
H2580       H  0.96049106  0.69243013  0.85973990     0.12800
H2581       H  0.95441871  0.71123056  0.89673764     0.12800
H2582       H  0.82196812  0.65602324  0.86285868     0.26000
H2583       H  0.81128694  0.69249517  0.89104678     0.26000
C2584       C  0.96818743  0.91685467  0.70814074     0.42300
N2585       N  0.98405372  0.95839763  0.72960390     0.01200
C2586       C  0.65514755  0.54744986  0.71734218    -0.06600
H2587       H  0.67120036  0.91510332  0.73476527     0.06700
C2588       C  0.60112799  0.94007312  0.80233683    -0.07000
Co2589     Co  0.56335483  0.99775994  0.71763924     0.74200
N2590       N  0.62616592  0.95322681  0.73156457    -0.26200
Co2591     Co  0.63120002  0.99693090  0.75176794     0.74100
C2592       C  0.63779567  0.92435609  0.79830559     0.42400
N2593       N  0.51426244  0.96995228  0.78798205     0.00800
N2594       N  0.62474758  0.96080727  0.77508467     0.01000
N2595       N  0.60526056  0.54427422  0.69803623    -0.47000
H2596       H  0.52897158  0.92686729  0.69437132     0.06700
N2597       N  0.59962322  0.95489599  0.71873811     0.01200
N2598       N  0.63092204  0.53800162  0.76732765     0.01000
C2599       C  0.65423383  0.58406208  0.78371996     0.42600
N2600       N  0.98457618  0.96349983  0.77428756    -0.25600
C2601       C  0.51742056  0.55108555  0.69899767    -0.06600
N2602       N  0.95568932  0.93586301  0.72423495    -0.46700
N2603       N  0.66078845  0.56066167  0.76855029    -0.47000
C2604       C  0.98918221  0.57969082  0.70598705     0.42400
N2605       N  0.60075093  0.52143569  0.71280347     0.01200
N2606       N  0.99520428  0.54652614  0.77157244    -0.25700
N2607       N  0.51828378  0.96081080  0.71938692    -0.26100
N2608       N  0.52238581  0.55263190  0.78242025     0.00900
H2609       H  0.95043810  0.58383048  0.76677928     0.06800
H2610       H  0.60363479  0.58282581  0.80524989     0.06800
N2611       N  0.62907328  0.52304599  0.72463168    -0.26200
N2612       N  0.59643948  0.96360779  0.78776635    -0.25800
N2613       N  0.99602722  0.53931155  0.72828853     0.01200
C2614       C  0.62942409  0.90671420  0.70967986     0.42600
C2615       C  0.95863241  0.93806627  0.78070791    -0.07100
N2616       N  0.60494421  0.54484793  0.78086995    -0.25800
H2617       H  0.58440709  0.93927620  0.81576014     0.06800
N2618       N  0.60087171  0.92826984  0.70553440    -0.47000
H2619       H  0.93151470  0.93283876  0.77440226     0.06800
C2620       C  0.99204965  0.59642999  0.79115118     0.42500
C2621       C  0.51042293  0.93457794  0.70634802    -0.06600
Co2622     Co  0.98545649  0.00121331  0.75095429     0.73800
N2623       N  0.50701238  0.94580926  0.80206440    -0.46700
C2624       C  0.63888517  0.56182824  0.69951142     0.42700
N2625       N  0.97431722  0.56659041  0.72309999    -0.46700
Co2626     Co  0.55995864  0.00722293  0.78702418     0.73900
C2627       C  0.61692101  0.57371969  0.79172401    -0.07100
C2628       C  0.64680967  0.92335030  0.72711271    -0.06600
N2629       N  0.51925709  0.52781088  0.71387563    -0.26200
N2630       N  0.65020896  0.93783493  0.78090718    -0.46900
H2631       H  0.68244218  0.55278708  0.72337684     0.06700
C2632       C  0.97549308  0.57731207  0.77437326    -0.07000
Cl2633     Cl  0.56162157  0.00252183  0.75219365    -0.50000
C2634       C  0.97331050  0.92345988  0.79888996     0.42500
H2635       H  0.53415193  0.55014594  0.68560579     0.06700
N2636       N  0.52052581  0.58211159  0.79403345    -0.46800
N2637       N  0.82322871  0.60896131  0.13257265    -0.36700
N2638       N  0.88441094  0.62376480  0.10690985    -0.57300
N2639       N  0.83308057  0.64446875  0.07567241    -0.36700
N2640       N  0.77126850  0.63012586  0.10204671    -0.57300
C2641       C  0.85132329  0.60885601  0.14547379     0.26900
C2642       C  0.79065983  0.61148262  0.14286714     0.26900
C2643       C  0.86653173  0.65985603  0.06967424     0.26900
C2644       C  0.80561606  0.66225252  0.06657702     0.26900
C2645       C  0.90309444  0.60701976  0.12102142     0.35500
C2646       C  0.90682087  0.62340685  0.09081839     0.35500
C2647       C  0.74702751  0.61382308  0.11508537     0.35500
C2648       C  0.75248364  0.63343421  0.08533277     0.35500
C2649       C  0.83618638  0.61067567  0.16428282    -0.22000
C2650       C  0.79788129  0.61235560  0.16264799    -0.22000
C2651       C  0.86038036  0.68765243  0.05636836    -0.22000
C2652       C  0.82188467  0.68906905  0.05437044    -0.22000
C2653       C  0.93777346  0.59602565  0.11388670    -0.23100
C2654       C  0.93965204  0.60531041  0.09455552    -0.23100
C2655       C  0.71263568  0.60669399  0.10666844    -0.23100
C2656       C  0.71609489  0.61912519  0.08780087    -0.23100
C2657       C  0.88980986  0.60443367  0.14051683    -0.18400
C2658       C  0.75456879  0.60816611  0.13491015    -0.18400
C2659       C  0.76650064  0.65371812  0.06892100    -0.18400
C2660       C  0.90217312  0.64705989  0.07490488    -0.18400
H2661       H  0.85098552  0.60993361  0.17779119     0.14500
H2662       H  0.77758304  0.61306770  0.17469158     0.14500
H2663       H  0.88144474  0.70475941  0.04870652     0.14500
H2664       H  0.80755151  0.70767755  0.04504329     0.14500
H2665       H  0.95981613  0.58346105  0.12175787     0.12800
H2666       H  0.96379193  0.60200131  0.08480695     0.12800
H2667       H  0.68742807  0.59463691  0.11355292     0.12800
H2668       H  0.69407742  0.61868826  0.07728437     0.12800
H2669       H  0.82508632  0.60247584  0.11779457     0.26000
H2670       H  0.82962295  0.62060424  0.08407491     0.26000
N2671       N  0.81248020  0.84828251  0.14464208    -0.36700
N2672       N  0.86851218  0.85583817  0.11354849    -0.57300
N2673       N  0.81172207  0.84315031  0.08506056    -0.36700
N2674       N  0.75522409  0.83060079  0.11770446    -0.57300
C2675       C  0.84433078  0.84983169  0.15480568     0.26900
C2676       C  0.78408815  0.83805192  0.15720517     0.26900
C2677       C  0.84312953  0.82975847  0.07608601     0.26900
C2678       C  0.78183208  0.82406570  0.07787791     0.26900
C2679       C  0.88805320  0.87188159  0.12809948     0.35500
C2680       C  0.88840848  0.86226955  0.09678659     0.35500
C2681       C  0.73327911  0.82868484  0.13409100     0.35500
C2682       C  0.73205766  0.82597009  0.10266260     0.35500
C2683       C  0.83609986  0.83906046  0.17391314    -0.22000
C2684       C  0.79785348  0.83256479  0.17550304    -0.22000
C2685       C  0.83307835  0.80110399  0.06345816    -0.22000
C2686       C  0.79437430  0.79685062  0.06497988    -0.22000
C2687       C  0.92034896  0.88958265  0.12046648    -0.23100
C2688       C  0.92090536  0.88286010  0.10061092    -0.23100
C2689       C  0.69656641  0.81984342  0.12963301    -0.23100
C2690       C  0.69606086  0.81647487  0.10971054    -0.23100
C2691       C  0.87890353  0.86669132  0.14816542    -0.18400
C2692       C  0.74568975  0.83712304  0.15291683    -0.18400
C2693       C  0.74369664  0.83105025  0.08290571    -0.18400
C2694       C  0.88030029  0.84357162  0.07912184    -0.18400
H2695       H  0.85531442  0.83822259  0.18579155     0.14500
H2696       H  0.78188217  0.82519613  0.18864074     0.14500
H2697       H  0.85167715  0.78462232  0.05438385     0.14500
H2698       H  0.77732980  0.77640251  0.05728250     0.14500
H2699       H  0.94220471  0.90398658  0.12846576     0.12800
H2700       H  0.94323649  0.89084039  0.09030039     0.12800
H2701       H  0.67284204  0.81583874  0.13969842     0.12800
H2702       H  0.67165925  0.80836274  0.10152386     0.12800
H2703       H  0.80936647  0.85975130  0.13097822     0.26000
H2704       H  0.81024354  0.86607887  0.09447127     0.26000
C2705       C  0.70745228  0.64969961  0.81707813    -0.02000
C2706       C  0.73217422  0.62536365  0.82565215     0.07700
C2707       C  0.73429510  0.58840012  0.81881922    -0.02100
C2708       C  0.71093909  0.57544135  0.80387421    -0.02100
C2709       C  0.68409116  0.59909247  0.79632558     0.07800
C2710       C  0.68301320  0.63642156  0.80268612    -0.02300
Br2711     Br  0.64830607  0.66951537  0.79142573    -0.00800
Br2712     Br  0.70730369  0.70123429  0.82513230    -0.00900
Br2713     Br  0.71584199  0.52506023  0.79427840    -0.00900
Br2714     Br  0.76867918  0.55525906  0.83035001    -0.00800
C2715       C  0.92476387  0.61617149  0.83318530    -0.02000
C2716       C  0.92027206  0.65470520  0.83131325     0.07700
C2717       C  0.94099694  0.67473259  0.81684727    -0.02100
C2718       C  0.96556363  0.65582608  0.80395155    -0.02100
C2719       C  0.96911479  0.61705613  0.80553351     0.07800
C2720       C  0.94912676  0.59739160  0.82040174    -0.02300
Br2721     Br  0.95327065  0.54421017  0.82283410    -0.00800
Br2722     Br  0.89546734  0.58851797  0.85267900    -0.00900
Br2723     Br  0.99401428  0.68265643  0.78398418    -0.00900
Br2724     Br  0.93422185  0.72735252  0.81424630    -0.00800
C2725       C  0.71202862  0.87493313  0.82508477    -0.02000
C2726       C  0.71686285  0.89850943  0.84133883     0.07700
C2727       C  0.69587790  0.93063660  0.84371782    -0.02100
C2728       C  0.66952553  0.93929306  0.82987233    -0.02100
C2729       C  0.66440402  0.91554151  0.81344081     0.07800
C2730       C  0.68644832  0.88393962  0.81088713    -0.02300
Br2731     Br  0.68156675  0.85281743  0.78795974    -0.00800
Br2732     Br  0.73921181  0.82945732  0.82286548    -0.00900
Br2733     Br  0.64286623  0.98495950  0.83354943    -0.00900
Br2734     Br  0.70366296  0.96280023  0.86610070    -0.00800
C2735       C  0.90260267  0.85637697  0.82365044    -0.02000
C2736       C  0.90402455  0.86807218  0.84334938     0.07700
C2737       C  0.93165555  0.89462262  0.84883364    -0.02100
C2738       C  0.95517639  0.91226142  0.83458499    -0.02100
C2739       C  0.95221566  0.90218016  0.81456786     0.07800
C2740       C  0.92775673  0.87215358  0.80955107    -0.02300
Br2741     Br  0.92926664  0.85148659  0.78347330    -0.00800
Br2742     Br  0.86323941  0.82237043  0.81526394    -0.00900
Br2743     Br  0.98864996  0.95214409  0.84312148    -0.00900
Br2744     Br  0.93406430  0.90977619  0.87591061    -0.00800
C2745       C  0.71186530  0.69446494  0.06301141    -0.02000
C2746       C  0.73836417  0.66955268  0.05543429     0.07700
C2747       C  0.73499107  0.65710350  0.03595403    -0.02100
C2748       C  0.70612222  0.67028922  0.02419229    -0.02100
C2749       C  0.67769152  0.69323425  0.03225849     0.07800
C2750       C  0.68016330  0.70319415  0.05231334    -0.02300
Br2751     Br  0.63991890  0.72616371  0.06659527    -0.00800
Br2752     Br  0.72013508  0.71826285  0.08801424    -0.00900
Br2753     Br  0.70481852  0.65471802  0.99727845    -0.00900
Br2754     Br  0.76951044  0.62126957  0.02552865    -0.00800
C2755       C  0.97733164  0.65579592  0.03473097    -0.02000
C2756       C  0.00551855  0.67767922  0.04416163     0.07700
C2757       C  0.00148311  0.68426797  0.06428380    -0.02100
C2758       C  0.96654269  0.67797283  0.07381669    -0.02100
C2759       C  0.93694435  0.65939211  0.06392750     0.07800
C2760       C  0.94334120  0.64647209  0.04473367    -0.02300
Br2761     Br  0.90609409  0.61448988  0.03244108    -0.00800
Br2762     Br  0.98488204  0.63562965  0.00874707    -0.00900
Br2763     Br  0.96012158  0.69438441  0.10057769    -0.00900
Br2764     Br  0.54213663  0.68531549  0.07997870    -0.00800
C2765       C  0.67839413  0.84951413  0.07128999    -0.02000
C2766       C  0.71486749  0.83607703  0.06731751     0.07700
C2767       C  0.72252503  0.82638062  0.04782659    -0.02100
C2768       C  0.69374017  0.81043092  0.03684305    -0.02100
C2769       C  0.65565558  0.81368716  0.04338693     0.07800
C2770       C  0.64842185  0.83729949  0.05955829    -0.02300
Br2771     Br  0.59831782  0.85407390  0.06509407    -0.00800
Br2772     Br  0.67060472  0.88863769  0.09036970    -0.00900
Br2773     Br  0.71017942  0.78357145  0.01397337    -0.00900
Br2774     Br  0.76524809  0.84926734  0.03401433    -0.00800
C2775       C  0.94770725  0.83615119  0.03402667    -0.02000
C2776       C  0.97472976  0.81209576  0.04091603     0.07700
C2777       C  0.97243808  0.80215996  0.06069241    -0.02100
C2778       C  0.94053708  0.80998920  0.07244077    -0.02100
C2779       C  0.91254757  0.83290722  0.06555155     0.07800
C2780       C  0.91715430  0.84716259  0.04641357    -0.02300
Br2781     Br  0.88230527  0.88243020  0.03741214    -0.00800
Br2782     Br  0.95471261  0.85634036  0.00827328    -0.00900
Br2783     Br  0.93445738  0.78725406  0.09769472    -0.00900
Br2784     Br  0.51672121  0.77537827  0.07399309    -0.00800
C2785       C  0.63259271  0.85710894  0.94862057    -0.02000
C2786       C  0.64206520  0.84151497  0.96643218     0.07700
C2787       C  0.67807054  0.84955637  0.97310425    -0.02100
C2788       C  0.70751090  0.85678580  0.95947418    -0.02100
C2789       C  0.69890378  0.86014200  0.93957858     0.07800
C2790       C  0.66162537  0.87022149  0.93595061    -0.02300
Br2791     Br  0.65135342  0.91005882  0.91843381    -0.00800
Br2792     Br  0.58122942  0.86196788  0.94175541    -0.00900
Br2793     Br  0.75755382  0.86702864  0.96843555    -0.00900
Br2794     Br  0.68171383  0.86643534  0.99950268    -0.00800
C2795       C  0.95469224  0.78560013  0.93614805    -0.02000
C2796       C  0.94608304  0.78539119  0.95947447     0.07700
C2797       C  0.90343879  0.77878469  0.96766161    -0.02100
C2798       C  0.86875070  0.77372752  0.95299503    -0.02100
C2799       C  0.87600701  0.77626277  0.92886909     0.07800
C2800       C  0.92070182  0.78134304  0.92082753    -0.02300
Br2801     Br  0.93741736  0.79116435  0.89436380    -0.00800
Br2802     Br  0.00522672  0.79301364  0.92613148    -0.00900
Br2803     Br  0.82181357  0.77105539  0.96753571    -0.00900
Br2804     Br  0.89388799  0.78131902  0.99552047    -0.00800
C2805       C  0.69142127  0.65623826  0.93602734    -0.02000
C2806       C  0.70909438  0.68127376  0.92269029     0.07700
C2807       C  0.69123084  0.71463332  0.91874741    -0.02100
C2808       C  0.65818936  0.72453775  0.92921541    -0.02100
C2809       C  0.64260100  0.70150490  0.94443123     0.07800
C2810       C  0.65839045  0.66609418  0.94674440    -0.02300
Br2811     Br  0.63269539  0.62899833  0.96282016    -0.00800
Br2812     Br  0.71137737  0.60747657  0.93862758    -0.00900
Br2813     Br  0.63429528  0.76902029  0.92114729    -0.00900
Br2814     Br  0.71148128  0.74619761  0.89796532    -0.00800
C2815       C  0.93682025  0.71338516  0.95836818    -0.02000
C2816       C  0.96839730  0.69267091  0.95310457     0.07700
C2817       C  0.96373225  0.66821190  0.93764210    -0.02100
C2818       C  0.92991276  0.66911106  0.92765176    -0.02100
C2819       C  0.90788921  0.70239525  0.92838785     0.07800
C2820       C  0.91621381  0.73192184  0.94339916    -0.02300
Br2821     Br  0.90533617  0.83340112  0.94446147    -0.00800
Br2822     Br  0.90779339  0.69110848  0.97947955    -0.00900
Br2823     Br  0.91520322  0.62498884  0.91293243    -0.00900
Br2824     Br  0.00179349  0.63313391  0.93117470    -0.00800
C2825       C  0.96338928  0.87553363  0.18114986    -0.02000
C2826       C  0.95023151  0.90133399  0.19549590     0.07700
C2827       C  0.91348536  0.91497361  0.19374560    -0.02100
C2828       C  0.89299283  0.90728942  0.17697876    -0.02100
C2829       C  0.90529185  0.88049308  0.16333837     0.07800
C2830       C  0.94007455  0.86387164  0.16579347    -0.02300
Br2831     Br  0.95515530  0.82383411  0.14855255    -0.00800
Br2832     Br  0.01282896  0.85533585  0.18145480    -0.00900
Br2833     Br  0.84710962  0.93323744  0.17294939    -0.00900
Br2834     Br  0.88769589  0.94060267  0.21494916    -0.00800
C2835       C  0.71760096  0.89526251  0.16546317    -0.02000
C2836       C  0.71937773  0.85639547  0.16676546     0.07700
C2837       C  0.69670490  0.83738645  0.18083933    -0.02100
C2838       C  0.67252553  0.85731665  0.19370933    -0.02100
C2839       C  0.67113581  0.89664317  0.19271683     0.07800
C2840       C  0.69480525  0.91532355  0.17862578    -0.02300
Br2841     Br  0.69807234  0.96867523  0.17678856    -0.00800
Br2842     Br  0.74645546  0.92130699  0.14507631    -0.00900
Br2843     Br  0.64411505  0.83061073  0.21371986    -0.00900
Br2844     Br  0.69912000  0.78410135  0.18234997    -0.00800
C2845       C  0.92815212  0.62707516  0.16896199    -0.02000
C2846       C  0.91711426  0.59784280  0.15621202     0.07700
C2847       C  0.93250249  0.56252307  0.15831188    -0.02100
C2848       C  0.95886904  0.55679089  0.17275692    -0.02100
C2849       C  0.96643700  0.58472088  0.18679908     0.07800
C2850       C  0.95115798  0.61998991  0.18479198    -0.02300
Br2851     Br  0.95957995  0.65767287  0.20448922    -0.00800
Br2852     Br  0.91165083  0.67679678  0.16481866    -0.00900
Br2853     Br  0.47227857  0.49060753  0.17411611    -0.00900
Br2854     Br  0.91646837  0.52152496  0.14191560    -0.00800
C2855       C  0.69560189  0.54436695  0.16709911    -0.02000
C2856       C  0.67420771  0.56977878  0.17837440     0.07700
C2857       C  0.67804189  0.60836502  0.17427125    -0.02100
C2858       C  0.70261859  0.62080730  0.15909319    -0.02100
C2859       C  0.72367042  0.59515669  0.14819820     0.07800
C2860       C  0.71954005  0.55700989  0.15185399    -0.02300
Br2861     Br  0.74839786  0.52224618  0.13629134    -0.00800
Br2862     Br  0.69498457  0.49216741  0.17277108    -0.00900
Br2863     Br  0.70978257  0.67326100  0.15388013    -0.00900
Br2864     Br  0.65468913  0.64553035  0.19066857    -0.00800
C2865       C  0.69301986  0.64307625  0.67482074    -0.02000
C2866       C  0.67578509  0.64331005  0.65660314     0.07700
C2867       C  0.64784571  0.61618383  0.65235672    -0.02100
C2868       C  0.63920023  0.58745060  0.66552316    -0.02100
C2869       C  0.65386556  0.58881184  0.68460285     0.07800
C2870       C  0.68006507  0.61782275  0.68928592    -0.02300
Br2871     Br  0.69454389  0.62761006  0.71575970    -0.00800
Br2872     Br  0.73281662  0.67908790  0.68033119    -0.00900
Br2873     Br  0.60731459  0.54667035  0.65629116    -0.00900
Br2874     Br  0.61807296  0.62037651  0.62937166    -0.00800
C2875       C  0.68739056  0.85237093  0.67233221    -0.02000
C2876       C  0.65811773  0.83478866  0.66197362     0.07700
C2877       C  0.62063276  0.83836571  0.66848587    -0.02100
C2878       C  0.61262653  0.85738814  0.68592026    -0.02100
C2879       C  0.64135167  0.87777986  0.69553318     0.07800
C2880       C  0.67899938  0.87514598  0.68864855    -0.02300
Br2881     Br  0.71911229  0.90371057  0.70043193    -0.00800
Br2882     Br  0.73889774  0.84530911  0.66396239    -0.00900
Br2883     Br  0.56217697  0.85334732  0.69709008    -0.00900
Br2884     Br  0.58017585  0.81598551  0.65375571    -0.00800
C2885       C  0.91762888  0.62381413  0.67403647    -0.02000
C2886       C  0.94124672  0.64829863  0.66298016     0.07700
C2887       C  0.98009788  0.64995796  0.66607628    -0.02100
C2888       C  0.99479396  0.63011592  0.68141015    -0.02100
C2889       C  0.97150912  0.60486270  0.69230133     0.07800
C2890       C  0.93284511  0.60131035  0.68831594    -0.02300
Br2891     Br  0.90070769  0.56475063  0.70151996    -0.00800
Br2892     Br  0.86450427  0.62098132  0.66937884    -0.00900
Br2893     Br  0.55292447  0.63367701  0.69208585    -0.00900
Br2894     Br  0.01302575  0.68025342  0.64942223    -0.00800
C2895       C  0.95752005  0.89408122  0.67389196    -0.02000
C2896       C  0.94556965  0.89467152  0.69382846     0.07700
C2897       C  0.91549851  0.87039764  0.69983999    -0.02100
C2898       C  0.90012267  0.84427727  0.68647780    -0.02100
C2899       C  0.91717975  0.83967002  0.66779289     0.07800
C2900       C  0.94651906  0.86444800  0.66173965    -0.02300
Br2901     Br  0.97323985  0.85715590  0.63707247    -0.00800
Br2902     Br  0.98392350  0.93606669  0.66173388    -0.00900
Br2903     Br  0.85629390  0.81416423  0.69375158    -0.00900
Br2904     Br  0.89563524  0.87187918  0.72624971    -0.00800
C2905       C  0.89252256  0.62562261  0.55524539    -0.02000
C2906       C  0.86993714  0.64193113  0.57005782     0.07700
C2907       C  0.83631005  0.62321495  0.57601349    -0.02100
C2908       C  0.82437587  0.58967655  0.56687103    -0.02100
C2909       C  0.84476474  0.57511071  0.55037811     0.07800
C2910       C  0.88015645  0.59262436  0.54541626    -0.02300
Br2911     Br  0.91397165  0.57009884  0.52653195    -0.00800
Br2912     Br  0.94141488  0.64778915  0.54923383    -0.00900
Br2913     Br  0.78147447  0.56334998  0.57884151    -0.00900
Br2914     Br  0.80738392  0.64324793  0.59778008    -0.00800
C2915       C  0.87667022  0.89358590  0.55239346    -0.02000
C2916       C  0.84052193  0.90910850  0.55395496     0.07700
C2917       C  0.81372382  0.89181394  0.56720048    -0.02100
C2918       C  0.82115400  0.85762229  0.57615871    -0.02100
C2919       C  0.85622531  0.84092623  0.57329280     0.07800
C2920       C  0.88422584  0.85982852  0.56185558    -0.02300
Br2921     Br  0.93419095  0.84061257  0.56055974    -0.00800
Br2922     Br  0.91788858  0.92102563  0.53982248    -0.00900
Br2923     Br  0.78466441  0.83534199  0.59440116    -0.00900
Br2924     Br  0.76808728  0.91584483  0.57552422    -0.00800
C2925       C  0.68116218  0.58985240  0.54310060    -0.02000
C2926       C  0.71237488  0.59574581  0.53008128     0.07700
C2927       C  0.72818278  0.63217784  0.52841626    -0.02100
C2928       C  0.72170707  0.65805030  0.54329610    -0.02100
C2929       C  0.69215398  0.65191481  0.55698490     0.07800
C2930       C  0.66991135  0.61885507  0.55581264    -0.02300
Br2931     Br  0.62582048  0.61261705  0.57260071    -0.00800
Br2932     Br  0.65424329  0.54268573  0.54437473    -0.00900
Br2933     Br  0.75841139  0.69749833  0.54686263    -0.00900
Br2934     Br  0.75915475  0.64746275  0.50605435    -0.00800
C2935       C  0.66966360  0.87127036  0.55587285    -0.02000
C2936       C  0.68961779  0.83902711  0.55962067     0.07700
C2937       C  0.72113947  0.83089738  0.54758300    -0.02100
C2938       C  0.73255899  0.85442672  0.53231586    -0.02100
C2939       C  0.71800504  0.89040038  0.53133780     0.07800
C2940       C  0.68447021  0.89760907  0.54226715    -0.02300
Br2941     Br  0.65692908  0.94173218  0.53813474    -0.00800
Br2942     Br  0.62218906  0.87920971  0.56933377    -0.00900
Br2943     Br  0.76619893  0.83520123  0.51213491    -0.00900
Br2944     Br  0.75201607  0.78966766  0.55285460    -0.00800
C2945       C  0.70323705  0.64802359  0.32139990    -0.02000
C2946       C  0.67353144  0.65144871  0.33541332     0.07700
C2947       C  0.64183454  0.62689816  0.33433539    -0.02100
C2948       C  0.63891725  0.60115155  0.31878408    -0.02100
C2949       C  0.66616282  0.60148306  0.30347052     0.07800
C2950       C  0.69913073  0.62372877  0.30523980    -0.02300
Br2951     Br  0.73783066  0.62187297  0.28504178    -0.00800
Br2952     Br  0.74898054  0.67760356  0.32397922    -0.00900
Br2953     Br  0.59718484  0.56556478  0.31816728    -0.00900
Br2954     Br  0.60124204  0.62958006  0.35352368    -0.00800
C2955       C  0.67917597  0.86446987  0.32884598    -0.02000
C2956       C  0.64924622  0.84507387  0.33863648     0.07700
C2957       C  0.61216843  0.85366259  0.33484009    -0.02100
C2958       C  0.60498903  0.88206255  0.32172733    -0.02100
C2959       C  0.63458296  0.90043804  0.31090446     0.07800
C2960       C  0.67194861  0.89121029  0.31457597    -0.02300
Br2961     Br  0.71328280  0.91209674  0.29910717    -0.00800
Br2962     Br  0.73012520  0.85350467  0.33478667    -0.00900
Br2963     Br  0.55400907  0.89610611  0.31962104    -0.00900
Br2964     Br  0.57108550  0.82566296  0.34744395    -0.00800
C2965       C  0.71276718  0.61149729  0.45825072    -0.02000
C2966       C  0.74236677  0.59005956  0.45043991     0.07700
C2967       C  0.76070677  0.60191301  0.43286927    -0.02100
C2968       C  0.75329702  0.63668827  0.42489318    -0.02100
C2969       C  0.72291619  0.65732323  0.43217028     0.07800
C2970       C  0.70281862  0.64468577  0.44901713    -0.02300
Br2971     Br  0.66096973  0.67235592  0.45908116    -0.00800
Br2972     Br  0.68194252  0.59247629  0.47972064    -0.00900
Br2973     Br  0.78377669  0.65571887  0.40319389    -0.00900
Br2974     Br  0.79212567  0.56914824  0.41778729    -0.00800
C2975       C  0.74049766  0.91376089  0.43637587    -0.02000
C2976       C  0.73174210  0.91442062  0.45654740     0.07700
C2977       C  0.70479930  0.88807208  0.46380017    -0.02100
C2978       C  0.69176400  0.85814086  0.45197683    -0.02100
C2979       C  0.70491164  0.85457269  0.43245699     0.07800
C2980       C  0.72788959  0.88384445  0.42444654    -0.02300
Br2981     Br  0.74245582  0.88333143  0.39709808    -0.00800
Br2982     Br  0.76656388  0.95578237  0.42474330    -0.00900
Br2983     Br  0.65450500  0.82289644  0.46226333    -0.00900
Br2984     Br  0.68116572  0.89631486  0.48874425    -0.00800
C2985       C  0.95633313  0.61732081  0.32234311    -0.02000
C2986       C  0.99298399  0.62029116  0.31354771     0.07700
C2987       C  0.01848348  0.64784634  0.32116751    -0.02100
C2988       C  0.00865071  0.66913160  0.33787498    -0.02100
C2989       C  0.97255999  0.66519935  0.34664098     0.07800
C2990       C  0.94676716  0.63880633  0.33901749    -0.02300
Br2991     Br  0.89671752  0.63432531  0.35062805    -0.00800
Br2992     Br  0.91588319  0.59007352  0.30990192    -0.00900
Br2993     Br  0.04324544  0.70704837  0.34784098    -0.00900
Br2994     Br  0.06535352  0.66145595  0.30803326    -0.00800
C2995       C  0.95682770  0.88672044  0.34894985    -0.02000
C2996       C  0.93388613  0.85634771  0.34289368     0.07700
C2997       C  0.91912657  0.85613389  0.32402147    -0.02100
C2998       C  0.93335673  0.88185632  0.31019491    -0.02100
C2999       C  0.95965168  0.90960467  0.31579281     0.07800
C3000       C  0.96790798  0.91444724  0.33552482    -0.02300
Br3001     Br  0.48999100  0.96147935  0.33355287    -0.00800
Br3002     Br  0.97526488  0.88936698  0.37503711    -0.00900
Br3003     Br  0.91767741  0.87868141  0.28358412    -0.00900
Br3004     Br  0.88077675  0.81981056  0.31687044    -0.00800
C3005       C  0.89498333  0.66320624  0.46047342    -0.02000
C3006       C  0.89348128  0.65767408  0.44005362     0.07700
C3007       C  0.88382975  0.62147467  0.43308682    -0.02100
C3008       C  0.87545278  0.59246931  0.44628667    -0.02100
C3009       C  0.86743419  0.60034863  0.46605325     0.07800
C3010       C  0.87950781  0.63588885  0.47333267    -0.02300
Br3011     Br  0.87631893  0.64822470  0.50083014    -0.00800
Br3012     Br  0.91898766  0.70774555  0.47099764    -0.00900
Br3013     Br  0.88090710  0.54215997  0.43762482    -0.00900
Br3014     Br  0.87844560  0.61089874  0.40562477    -0.00800
C3015       C  0.88699057  0.85690864  0.44987133    -0.02000
C3016       C  0.87299299  0.85471788  0.43065327     0.07700
C3017       C  0.86086771  0.88844559  0.42249122    -0.02100
C3018       C  0.86264330  0.92192821  0.43322649    -0.02100
C3019       C  0.86808013  0.92205032  0.45346378     0.07800
C3020       C  0.88202710  0.88926714  0.46158916    -0.00300
Br3021     Br  0.89480711  0.88729561  0.48870584    -0.00800
Br3022     Br  0.91620642  0.81763510  0.46016470    -0.00900
Br3023     Br  0.86167221  0.96794321  0.41927673    -0.00900
Br3024     Br  0.83850971  0.89139609  0.39722040    -0.00800
loop_ 
_geom_bond_atom_site_label_1 
_geom_bond_atom_site_label_2 
_geom_bond_distance 
_geom_bond_site_symmetry_2 
_ccdc_geom_bond_type 
N1            C6   1.348       .  A
N1            C5   1.345       .  A
N1           H33   1.038       .  S
N2            C9   1.351       .  A
N2           C10   1.352       .  A
N3            C8   1.351       .  A
N3            C7   1.351       .  A
N3           H34   1.044       .  S
N4           C11   1.351       .  A
N4           C12   1.351       .  A
C5           C13   1.395       .  A
C5           C21   1.417       .  A
C6           C22   1.400       .  A
C6           C14   1.379       .  A
C7           C15   1.394       .  A
C7           C24   1.427       .  A
C8           C23   1.414       .  A
C8           C16   1.384       .  A
C9           C21   1.418       .  A
C9           C17   1.386       .  A
C10          C24   1.419       .  A
C10          C18   1.388       .  A
C11          C19   1.383       .  A
C11          C22   1.389       .  A
C12          C20   1.386       .  A
C12          C23   1.398       .  A
C13          C14   1.378       .  A
C13          H25   1.082       .  S
C14          H26   1.082       .  S
C15          C16   1.391       .  A
C15          H27   1.082       .  S
C16          H28   1.082       .  S
C17          C18   1.380       .  A
C17          H29   1.082       .  S
C18          H30   1.082       .  S
C19          C20   1.362       .  A
C19          H31   1.083       .  S
C20          H32   1.083       .  S
C21         C721   1.486       .  S
C22         C728   1.474       .  S
C23         C748   1.530       .  S
C24         C738   1.512       .  S
N35          C40   1.355       .  A
N35          C39   1.355       .  A
N35          H67   1.034       .  S
N36          C43   1.354       .  A
N36          C44   1.353       .  A
N37          C42   1.357       .  A
N37          C41   1.357       .  A
N37          H68   1.040       .  S
N38          C45   1.353       .  A
N38          C46   1.351       .  A
C39          C47   1.386       .  A
C39          C55   1.420       .  A
C40          C56   1.425       .  A
C40          C48   1.389       .  A
C41          C49   1.387       .  A
C41          C58   1.424       .  A
C42          C57   1.422       .  A
C42          C50   1.387       .  A
C43          C55   1.419       .  A
C43          C51   1.386       .  A
C44          C58   1.418       .  A
C44          C52   1.387       .  A
C45          C53   1.386       .  A
C45          C56   1.418       .  A
C46          C54   1.388       .  A
C46          C57   1.416       .  A
C47          C48   1.375       .  A
C47          H59   1.082       .  S
C48          H60   1.081       .  S
C49          C50   1.383       .  A
C49          H61   1.082       .  S
C50          H62   1.082       .  S
C51          C52   1.373       .  A
C51          H63   1.082       .  S
C52          H64   1.082       .  S
C53          C54   1.368       .  A
C53          H65   1.082       .  S
C54          H66   1.083       .  S
C55         C688   1.498       .  S
C56         C678   1.499       .  S
C57         C701   1.499       .  S
C58         C711   1.505       .  S
O69          C77   1.259       .  A
O69         Co89   1.972       .  S
O70          C78   1.272       .  A
O70         Co90   1.988       .  S
O71          C79   1.311       .  A
O71         Co91   2.160       .  S
O72          C80   1.268       .  A
O72        Co848   2.016       .  S
O73          C79   1.256       .  A
O73         Co90   1.866       .  S
O74          C80   1.266       .  A
O74         Co89   1.976       .  S
O75          C78   1.272       .  A
O75         Co92   2.014   1_545  S
O76          C77   1.271       .  A
O76        Co847   2.020       .  S
C77         C751   1.497       .  S
C78         C641   1.521       .  S
C79         C741   1.505       .  S
C80         C648   1.517       .  S
O81          C94   1.269       .  A
O81         Co89   1.999       .  S
O82          C95   1.298       .  A
O82         Co90   2.127       .  S
O83          C96   1.274       .  A
O83        Co847   2.003       .  S
O84          C97   1.265       .  A
O84         Co92   2.009   1_545  S
O85          C97   1.256       .  A
O85         Co90   1.970       .  S
O86          C96   1.274       .  A
O86         Co89   2.025       .  S
O87          C94   1.270       .  A
O87        Co848   1.992       .  S
O88          C95   1.263       .  A
O88         Co91   1.881       .  S
Co89        O849   2.046       .  S
Co90         O93   2.002   1_545  S
Co91        O832   2.015   1_545  S
Co91        O839   2.003   1_545  S
Co91         O93   2.022   1_545  S
Co92        O828   2.024       .  S
Co92        O843   1.981       .  S
Co92         O93   2.054       .  S
O93        Co845   2.054       .  S
C94         C671   1.506       .  S
C95         C698   1.496       .  S
C96         C708   1.494       .  S
C97         C658   1.497       .  S
N98         C103   1.362       .  A
N98         C102   1.359       .  A
N98         H130   1.036       .  S
N99         C106   1.352       .  A
N99         C107   1.356       .  A
N100        C105   1.353       .  A
N100        C104   1.357       .  A
N100        H131   1.037       .  S
N101        C108   1.352       .  A
N101        C109   1.351       .  A
C102        C110   1.387       .  A
C102        C118   1.431       .  A
C103        C119   1.431       .  A
C103        C111   1.386       .  A
C104        C112   1.387       .  A
C104        C121   1.416       .  A
C105        C120   1.416       .  A
C105        C113   1.388       .  A
C106        C118   1.423       .  A
C106        C114   1.390       .  A
C107        C121   1.416       .  A
C107        C115   1.384       .  A
C108        C116   1.389       .  A
C108        C119   1.420       .  A
C109        C117   1.385       .  A
C109        C120   1.413       .  A
C110        C111   1.383       .  A
C110        H122   1.082       .  S
C111        H123   1.082       .  S
C112        C113   1.365       .  A
C112        H124   1.082       .  S
C113        H125   1.082       .  S
C114        C115   1.362       .  A
C114        H126   1.081       .  S
C115        H127   1.082       .  S
C116        C117   1.368       .  A
C116        H128   1.082       .  S
C117        H129   1.082       .  S
C118        C651   1.505       .  S
C119        C638   1.509       .  S
C120        C618   1.483       .  S
C121        C631   1.500       .  S
N132        C137   1.350       .  A
N132        C136   1.353       .  A
N132        H164   1.042       .  S
N133        C140   1.347       .  A
N133        C141   1.345       .  A
N134        C139   1.352       .  A
N134        C138   1.354       .  A
N134        H165   1.040       .  S
N135        C142   1.352       .  A
N135        C143   1.352       .  A
C136        C144   1.386       .  A
C136        C152   1.411       .  A
C137        C153   1.412       .  A
C137        C145   1.389       .  A
C138        C146   1.386       .  A
C138        C155   1.418       .  A
C139        C154   1.418       .  A
C139        C147   1.387       .  A
C140        C152   1.405       .  A
C140        C148   1.384       .  A
C141        C155   1.410       .  A
C141        C149   1.385       .  A
C142        C150   1.384       .  A
C142        C153   1.412       .  A
C143        C151   1.388       .  A
C143        C154   1.420       .  A
C144        C145   1.369       .  A
C144        H156   1.082       .  S
C145        H157   1.081       .  S
C146        C147   1.380       .  A
C146        H158   1.082       .  S
C147        H159   1.082       .  S
C148        C149   1.375       .  A
C148        H160   1.082       .  S
C149        H161   1.079       .  S
C150        C151   1.378       .  A
C150        H162   1.082       .  S
C151        H163   1.080       .  S
C152        C598   1.492       .  S
C153        C608   1.485       .  S
C154        C668   1.502       .  S
C155        C661   1.491       .  S
C166       N1696   1.348       .  A
C166        C203   1.480       .  S
C166        C718   1.508       .  S
N167        N184   1.327       .  A
N167        N189   1.319       .  A
N167       Co204   2.102       .  S
C168        N193   1.344       .  A
C168        H213   1.077       .  S
C168       C1718   1.481   1_455  S
H169        C210   1.081       .  S
C170        N194   1.354       .  A
C170        H199   1.081       .  S
C170        C174   1.482       .  S
Co171      N2457   2.091       .  S
Co171      N1691   2.095       .  S
Co171      N2479   2.085       .  S
Co171      N1699   2.076       .  S
Co171     Cl1727   2.434       .  S
N172        C210   1.337       .  A
N172        N179   1.319       .  A
N172       Co173   2.096       .  S
Co173       N176   2.080       .  S
Co173       N193   2.098       .  S
Co173       N180   2.108       .  S
Co173      Cl215   2.452       .  S
C174        N212   1.345       .  A
C174        C691   1.502       .  S
N175        N182   1.321       .  A
N175        N205   1.328       .  A
N175       Co208   2.083   1_545  S
N176        N194   1.322       .  A
N176        N212   1.320       .  A
N177        C206   1.346       .  A
N177       N1699   1.317       .  A
H178        C203   1.080       .  S
N179       N1712   1.326   1_455  A
N179      Co1683   2.064   1_455  S
N180        N198   1.319       .  A
N180        N185   1.333       .  A
C181        N185   1.360       .  A
C181        C209   1.455       .  S
C181        C571   1.498       .  S
N182        C197   1.336       .  A
N182       Co204   2.095       .  S
C183       N1723   1.331       .  A
C183        H217   1.081       .  S
C183        C186   1.446       .  S
N184       C1678   1.354   1_455  A
C186       N1719   1.360       .  A
C186        C581   1.481       .  S
N187        N193   1.318   1_655  A
N187       N1689   1.322       .  A
N187      Co1683   2.098       .  S
N188        C214   1.343       .  A
N188        N190   1.324       .  A
N188       Co204   2.081       .  S
N189       C1715   1.347   1_455  A
N189      Co2439   2.112   1_445  S
N190        N218   1.327       .  A
N190       Co208   2.119   1_545  S
H191        C214   1.081       .  S
H192        C209   1.081       .  S
N194       Co964   2.127       .  S
N195        N207   1.335       .  A
N195        N211   1.317   1_455  A
N195       Co204   2.122       .  S
C196        N200   1.357       .  A
C196        C731   1.475       .  S
C196       C1722   1.448       .  S
C197        H201   1.077       .  S
C197        C216   1.458       .  S
N198        C209   1.333       .  A
N198       Co964   2.072       .  S
N200       N1691   1.326       .  A
C202        N218   1.353       .  A
C202        C214   1.458       .  S
C202        C588   1.481       .  S
C203       N1701   1.346       .  A
Co204      Cl971   2.470   1_545  S
N205        C216   1.351       .  A
C206        C558   1.498       .  S
C206       C1680   1.474       .  S
N207       C1698   1.363   1_455  A
Co208       N950   2.122       .  S
Co208       N954   2.070       .  S
Co208      Cl971   2.448       .  S
C210       C1708   1.458   1_455  S
N211       C1695   1.333       .  A
N211      Co2439   2.058   1_545  S
Cl215     Co1683   2.448   1_455  S
Cl215      Co960   2.467       .  S
Cl215      Co964   2.447       .  S
C216        C681   1.478       .  S
O219       C1739   1.270       .  A
O219      Co1751   1.979       .  S
O220        C228   1.267       .  A
O220       Co240   1.884   1_554  S
O221        C229   1.269       .  A
O221       Co241   2.014       .  S
O222       C1742   1.268       .  A
O222       Co242   2.028       .  S
O223        C229   1.265       .  A
O223       Co240   1.982       .  S
O224        C230   1.248       .  A
O224      Co1751   1.954   1_554  S
O225        C228   1.303       .  A
O225       Co242   2.146       .  S
O226        C227   1.264       .  A
O226       Co241   1.997       .  S
C227       C2060   1.475   1_455  S
C227       O1731   1.266       .  A
C228        C481   1.508       .  S
C229        C541   1.514       .  S
C230        C488   1.497       .  S
C230       O1734   1.272       .  A
O231       C1756   1.278       .  A
O231      Co1751   2.038   1_554  S
O232        C245   1.277       .  A
O232       Co240   2.033       .  S
O233        C246   1.268   1_455  A
O233       Co241   1.975       .  S
O234        C247   1.269       .  A
O234       Co242   1.893       .  S
O235        C247   1.290       .  A
O235       Co240   2.110   1_554  S
O236       C1758   1.260       .  A
O236      Co1751   1.968       .  S
O237        C244   1.274       .  A
O237       Co242   2.001       .  S
O238        C245   1.261       .  A
O238       Co241   1.973       .  S
Co239      O1731   1.968       .  S
Co239      O1736   1.956   1_556  S
Co239      O1743   2.042   1_456  S
Co239      O1748   1.965   1_455  S
Co239       O243   2.036       .  S
Co240       O243   2.013       .  S
Co241       O243   2.064       .  S
Co242       O243   2.029   1_554  S
C244       C2020   1.501   1_455  S
C244       O1743   1.280   1_455  A
C245        C518   1.481       .  S
C246       C2040   1.482       .  S
C246       O1748   1.258       .  A
C247        C501   1.493       .  S
N248        C253   1.356       .  A
N248        C252   1.354       .  A
N248        H280   1.045       .  S
N249        C256   1.339       .  A
N249        C257   1.344       .  A
N250        C255   1.343       .  A
N250        C254   1.351       .  A
N250        H281   1.045       .  S
N251        C258   1.360       .  A
N251        C259   1.361       .  A
C252        C260   1.380       .  A
C252        C268   1.407       .  A
C253        C269   1.417       .  A
C253        C261   1.374       .  A
C254        C262   1.382       .  A
C254        C271   1.401       .  A
C255        C270   1.407       .  A
C255        C263   1.386       .  A
C256        C268   1.402       .  A
C256        C264   1.390       .  A
C257        C271   1.397       .  A
C257        C265   1.383       .  A
C258        C266   1.387       .  A
C258        C269   1.442       .  A
C259        C267   1.382       .  A
C259        C270   1.431       .  A
C260        C261   1.381       .  A
C260        H272   1.081       .  S
C261        H273   1.060       .  S
C262        C263   1.374       .  A
C262        H274   1.082       .  S
C263        H275   1.076       .  S
C264        C265   1.378       .  A
C264        H276   1.082       .  S
C265        H277   1.083       .  S
C266        C267   1.368       .  A
C266        H278   1.073       .  S
C267        H279   1.070       .  S
C268        C468   1.484       .  S
C269        C531   1.567       .  S
C270        C521   1.527       .  S
C271        C458   1.481       .  S
N282        C287   1.352       .  A
N282        C286   1.356       .  A
N282        H314   1.019       .  S
N283        C290   1.354       .  A
N283        C291   1.350       .  A
N284        C289   1.363       .  A
N284        C288   1.359       .  A
N284        H315   1.033       .  S
N285        C292   1.351       .  A
N285        C293   1.353       .  A
C286        C294   1.388       .  A
C286        C302   1.419       .  A
C287        C303   1.416       .  A
C287        C295   1.387       .  A
C288        C296   1.380       .  A
C288        C305   1.419       .  A
C289        C304   1.432       .  A
C289        C297   1.384       .  A
C290        C302   1.417       .  A
C290        C298   1.387       .  A
C291        C305   1.414       .  A
C291        C299   1.386       .  A
C292        C300   1.383       .  A
C292        C303   1.411       .  A
C293        C301   1.390       .  A
C293        C304   1.427       .  A
C294        C295   1.370       .  A
C294        H306   1.082       .  S
C295        H307   1.082       .  S
C296        C297   1.380       .  A
C296        H308   1.082       .  S
C297        H309   1.078       .  S
C298        C299   1.367       .  A
C298        H310   1.082       .  S
C299        H311   1.082       .  S
C300        C301   1.372       .  A
C300        H312   1.082       .  S
C301        H313   1.082       .  S
C302        C438   1.494       .  S
C303        C448   1.485       .  S
C304        C551   1.511       .  S
C305        C538   1.500       .  S
C316        N334   1.361       .  A
C316        C628   1.489       .  S
C316       C1865   1.452       .  S
N317        N334   1.332       .  A
N317       N1851   1.316       .  A
N317       Co354   2.108       .  S
C318        N343   1.344       .  A
C318        H363   1.081       .  S
C318        C356   1.468       .  S
H319        C360   1.081       .  S
C320        N344   1.336       .  A
C320        H349   1.081       .  S
C320        C324   1.458       .  S
Co321       N339   2.072       .  S
Co321       N329   2.060       .  S
Co321      N1117   2.062       .  S
Co321      N1093   2.065       .  S
Co321      Cl365   2.382       .  S
N322        C360   1.348       .  A
N322        N329   1.317       .  A
N322       Co323   2.091       .  S
Co323       N326   2.091       .  S
Co323      N1099   2.096       .  S
Co323      N1086   2.071       .  S
Co323      Cl365   2.494       .  S
C324        N362   1.355       .  A
C324        C461   1.485       .  S
N325        N355   1.320       .  A
N325       N1844   1.318   1_455  A
N325       Co358   2.074       .  S
N326        N344   1.318       .  A
N326        N362   1.324       .  A
N327        C356   1.344       .  A
N327        N337   1.317       .  A
H328        C353   1.078       .  S
N329        N350   1.314       .  A
N330        N348   1.319       .  A
N330        N335   1.324       .  A
N330      Co1079   2.077   1_545  S
C331        N335   1.350       .  A
C331        C359   1.462       .  S
C331        C441   1.477       .  S
N332        C347   1.341       .  A
N332       N1837   1.318       .  A
N332       Co354   2.087       .  S
C333        N361   1.334       .  A
C333        H367   1.082       .  S
C333       C1848   1.453   1_455  S
C336        N357   1.357       .  A
C336        C621   1.478       .  S
C336       C1845   1.448       .  S
N337        N343   1.316       .  A
N337      Co1077   2.057   1_545  S
N338        C364   1.338       .  A
N338       N1852   1.317       .  A
N338      Co1110   2.075       .  S
N339        C353   1.329       .  A
N339       N1829   1.318   1_455  A
N340        N368   1.322       .  A
N340       N1850   1.318   1_455  A
N340      Co1114   2.073       .  S
H341        C364   1.082       .  S
H342        C359   1.082       .  S
N343      Co1079   2.085   1_545  S
N344       Co358   2.075       .  S
N345        N357   1.327       .  A
N345       N1873   1.315       .  A
N345      Co1110   2.089       .  S
C346        N350   1.343       .  A
C346        C360   1.475       .  S
C346        C611   1.485       .  S
C347        H351   1.081       .  S
C347        C366   1.471       .  S
N348        C359   1.340       .  A
N348      Co1114   2.089       .  S
C352       N1880   1.351       .  A
C352        C364   1.460       .  S
C352        C451   1.471       .  S
C353       C1828   1.456   1_455  S
Co354      N1094   2.089       .  S
Co354      N1101   2.071       .  S
Co354     Cl1877   2.493       .  S
N355       C1878   1.345   1_455  A
C356        C601   1.480       .  S
Co358      N1096   2.080       .  S
Co358      N1104   2.083       .  S
Co358      Cl365   2.396       .  S
N361       N1857   1.317   1_455  A
N361      Co1077   2.070   1_545  S
Cl365     Co1866   2.498   1_455  S
C366       N1867   1.349       .  A
C366        C471   1.495       .  S
N368       C1864   1.349   1_455  A
N369        C374   1.354       .  A
N369        C373   1.358       .  A
N369        H401   1.035       .  S
N370        C377   1.348       .  A
N370        C378   1.346       .  A
N371        C376   1.355       .  A
N371        C375   1.356       .  A
N371        H402   1.041       .  S
N372        C379   1.357       .  A
N372        C380   1.356       .  A
C373        C381   1.384       .  A
C373        C389   1.422       .  A
C374        C390   1.427       .  A
C374        C382   1.391       .  A
C375        C383   1.387       .  A
C375        C392   1.419       .  A
C376        C391   1.421       .  A
C376        C384   1.388       .  A
C377        C389   1.409       .  A
C377        C385   1.386       .  A
C378        C392   1.409       .  A
C378        C386   1.388       .  A
C379        C387   1.387       .  A
C379        C390   1.426       .  A
C380        C388   1.387       .  A
C380        C391   1.426       .  A
C381        C382   1.376       .  A
C381        H393   1.082       .  S
C382        H394   1.081       .  S
C383        C384   1.381       .  A
C383        H395   1.082       .  S
C384        H396   1.082       .  S
C385        C386   1.367       .  A
C385        H397   1.081       .  S
C386        H398   1.083       .  S
C387        C388   1.372       .  A
C387        H399   1.081       .  S
C388        H400   1.082       .  S
C389        C578   1.496       .  S
C390        C591   1.504       .  S
C391        C478   1.511       .  S
C392        C491   1.493       .  S
N403        C408   1.353       .  A
N403        C407   1.351       .  A
N403        H435   1.038       .  S
N404        C411   1.347       .  A
N404        C412   1.350       .  A
N405        C410   1.350       .  A
N405        C409   1.358       .  A
N405        H436   1.044       .  S
N406        C413   1.351       .  A
N406        C414   1.349       .  A
C407        C415   1.390       .  A
C407        C423   1.419       .  A
C408        C424   1.410       .  A
C408        C416   1.383       .  A
C409        C417   1.386       .  A
C409        C426   1.419       .  A
C410        C425   1.417       .  A
C410        C418   1.388       .  A
C411        C423   1.415       .  A
C411        C419   1.389       .  A
C412        C426   1.411       .  A
C412        C420   1.385       .  A
C413        C421   1.382       .  A
C413        C424   1.411       .  A
C414        C422   1.390       .  A
C414        C425   1.420       .  A
C415        C416   1.376       .  A
C415        H427   1.082       .  S
C416        H428   1.082       .  S
C417        C418   1.385       .  A
C417        H429   1.082       .  S
C418        H430   1.082       .  S
C419        C420   1.379       .  A
C419        H431   1.082       .  S
C420        H432   1.082       .  S
C421        C422   1.374       .  A
C421        H433   1.082       .  S
C422        H434   1.081       .  S
C423        C561   1.487       .  S
C424        C568   1.493       .  S
C425        C498   1.525       .  S
C426        C511   1.511       .  S
C437        C438   1.411       .  A
C437        C442   1.408       .  A
C437       Br444   1.931       .  S
C438        C439   1.412       .  A
C439        C440   1.406       .  A
C439       Br446   1.934       .  S
C440        C441   1.413       .  A
C440       Br445   1.932       .  S
C441        C442   1.409       .  A
C442       Br443   1.930       .  S
C447        C448   1.410       .  A
C447        C452   1.401       .  A
C447       Br454   1.934       .  S
C448        C449   1.407       .  A
C449        C450   1.408       .  A
C449       Br456   1.927       .  S
C450        C451   1.410       .  A
C450       Br455   1.928       .  S
C451        C452   1.410       .  A
C452       Br453   1.932       .  S
C457        C458   1.408       .  A
C457        C462   1.405       .  A
C457       Br464   1.931       .  S
C458        C459   1.404       .  A
C459        C460   1.407       .  A
C459       Br466   1.934       .  S
C460        C461   1.426       .  A
C460       Br465   1.938       .  S
C461        C462   1.411       .  A
C462       Br463   1.931       .  S
C467        C468   1.408       .  A
C467        C472   1.408       .  A
C467       Br474   1.929       .  S
C468        C469   1.405       .  A
C469        C470   1.409       .  A
C469       Br476   1.934       .  S
C470        C471   1.423       .  A
C470       Br475   1.934       .  S
C471        C472   1.417       .  A
C472       Br473   1.931       .  S
C477        C478   1.408       .  A
C477        C482   1.406       .  A
C477       Br484   1.937       .  S
C478        C479   1.415       .  A
C479        C480   1.419       .  A
C479       Br486   1.931       .  S
C480        C481   1.420       .  A
C480       Br485   1.928   1_554  S
C481        C482   1.419       .  A
C482       Br483   1.917       .  S
C487        C488   1.426       .  A
C487        C492   1.412       .  A
C487       Br494   1.934       .  S
C488        C489   1.404       .  A
C489        C490   1.402       .  A
C489      Br2008   1.925       .  S
C490        C491   1.413       .  A
C490       Br495   1.930       .  S
C491        C492   1.406       .  A
C492       Br493   1.932       .  S
Br496      C2001   1.925   1_455  S
C497        C498   1.419       .  A
C497        C502   1.412       .  A
C497       Br504   1.933       .  S
C498        C499   1.408       .  A
C499        C500   1.404       .  A
C499       Br506   1.934       .  S
C500        C501   1.425       .  A
C500       Br505   1.924       .  S
C501        C502   1.410       .  A
C502       Br503   1.928       .  S
C507        C508   1.409       .  A
C507        C512   1.419       .  A
C507       Br514   1.923       .  S
C508        C509   1.407       .  A
C508       C1756   1.497       .  S
C509        C510   1.410       .  A
C509      Br2028   1.917       .  S
C510        C511   1.416       .  A
C510       Br515   1.932       .  S
C511        C512   1.418       .  A
C512       Br513   1.926       .  S
Br516      C2021   1.911   1_455  S
C517        C518   1.411       .  A
C517        C522   1.402       .  A
C517       Br524   1.919       .  S
C518        C519   1.409       .  A
C519        C520   1.414       .  A
C519       Br526   1.916   1_556  S
C520        C521   1.406       .  A
C520       Br525   1.930       .  S
C521        C522   1.410       .  A
C522       Br523   1.931       .  S
C527        C528   1.629       .  A
C527        C532   1.632       .  A
C527       Br534   1.915       .  S
C528        C529   1.636       .  A
C528       C1758   1.482       .  S
C529        C530   1.623       .  A
C529       Br536   1.926       .  S
C530        C531   1.638       .  A
C530       Br535   1.933       .  S
C531        C532   1.659       .  A
C532       Br533   1.922       .  S
C537        C538   1.412       .  A
C537        C542   1.421       .  A
C537       Br544   1.927       .  S
C538        C539   1.405       .  A
C539        C540   1.407       .  A
C539       Br546   1.939       .  S
C540        C541   1.425       .  A
C540       Br545   1.928       .  S
C541        C542   1.420       .  A
C542       Br543   1.929       .  S
C547        C548   1.408       .  A
C547        C552   1.472       .  A
C547       Br554   1.920       .  S
C548        C549   1.380       .  A
C548       C1739   1.485       .  S
C549        C550   1.398       .  A
C549       Br556   1.924       .  S
C550        C551   1.451       .  A
C550       Br555   1.938       .  S
C551        C552   1.493       .  A
C552       Br553   3.693       .  S
C557        C558   1.422       .  A
C557        C562   1.407       .  A
C557       Br564   1.931       .  S
C558        C559   1.429       .  A
C559        C560   1.404       .  A
C559       Br566   1.938       .  S
C560        C561   1.404       .  A
C560       Br565   1.939       .  S
C561        C562   1.406       .  A
C562       Br563   1.932       .  S
C567        C568   1.407       .  A
C567        C572   1.402       .  A
C567       Br574   1.941       .  S
C568        C569   1.409       .  A
C569        C570   1.419       .  A
C569       Br576   1.927       .  S
C570        C571   1.419       .  A
C570       Br575   1.928       .  S
C571        C572   1.418       .  A
C572       Br573   1.923       .  S
C577        C578   1.415       .  A
C577        C582   1.412       .  A
C577       Br584   1.931       .  S
C578        C579   1.410       .  A
C579        C580   1.406       .  A
C579       Br586   1.931       .  S
C580        C581   1.411       .  A
C580      Br2097   1.929       .  S
C581        C582   1.407       .  A
C582       Br583   1.927       .  S
Br585      C2092   1.930   1_565  S
C587        C588   1.405       .  A
C587        C592   1.408       .  A
C587       Br594   1.928       .  S
C588        C589   1.408       .  A
C589        C590   1.411       .  A
C589       Br596   1.928       .  S
C590        C591   1.417       .  A
C590       Br595   1.930       .  S
C591        C592   1.415       .  A
C592       Br593   1.929       .  S
C597        C598   1.414       .  A
C597        C602   1.407       .  A
C597       Br604   1.932       .  S
C598        C599   1.412       .  A
C599        C600   1.401       .  A
C599       Br606   1.935       .  S
C600        C601   1.416       .  A
C600       Br605   1.937       .  S
C601        C602   1.411       .  A
C602       Br603   1.930       .  S
C607        C608   1.410       .  A
C607        C612   1.414       .  A
C607       Br614   1.929       .  S
C608        C609   1.403       .  A
C609        C610   1.397       .  A
C609       Br616   1.933       .  S
C610        C611   1.415       .  A
C610       Br615   1.933       .  S
C611        C612   1.419       .  A
C612       Br613   1.927       .  S
C617        C618   1.406       .  A
C617        C622   1.407       .  A
C617       Br624   1.931       .  S
C618        C619   1.405       .  A
C619        C620   1.401       .  A
C619       Br626   1.935       .  S
C620        C621   1.418       .  A
C620      Br2137   1.937       .  S
C621        C622   1.416       .  A
C622       Br623   1.931       .  S
Br625      C2132   1.935   1_455  S
C627        C628   1.413       .  A
C627        C632   1.396       .  A
C627       Br634   1.935       .  S
C628        C629   1.410       .  A
C629        C630   1.416       .  A
C629       Br636   1.924       .  S
C630        C631   1.416       .  A
C630       Br635   1.928       .  S
C631        C632   1.410       .  A
C632       Br633   1.934       .  S
C637        C638   1.411       .  A
C637        C642   1.422       .  A
C637       Br644   1.927       .  S
C638        C639   1.405       .  A
C639        C640   1.411       .  A
C639       Br646   1.936       .  S
C640        C641   1.433       .  A
C640       Br645   1.940       .  S
C641        C642   1.424       .  A
C642       Br643   1.931       .  S
C647        C648   1.422       .  A
C647        C652   1.417       .  A
C647       Br654   1.931       .  S
C648        C649   1.432       .  A
C649        C650   1.413       .  A
C649       Br656   1.938       .  S
C650        C651   1.409       .  A
C650       Br655   1.939       .  S
C651        C652   1.409       .  A
C652       Br653   1.931       .  S
C657        C658   1.417       .  A
C657        C662   1.415       .  A
C657       Br664   1.922       .  S
C658        C659   1.416       .  A
C659        C660   1.395       .  A
C659       Br666   1.936       .  S
C660        C661   1.402       .  A
C660       Br665   1.918       .  S
C661        C662   1.411       .  A
C662       Br663   1.928       .  S
C667        C668   1.411       .  A
C667        C672   1.418       .  A
C667       Br674   1.929       .  S
C668        C669   1.409       .  A
C669        C670   1.399       .  A
C669       Br676   1.921       .  S
C670        C671   1.418       .  A
C670       Br675   1.941       .  S
C671        C672   1.423       .  A
C672       Br673   1.926       .  S
C677        C678   1.414       .  A
C677        C682   1.411       .  A
C677       Br684   1.930       .  S
C678        C679   1.413       .  A
C679        C680   1.406       .  A
C679       Br686   1.927       .  S
C680        C681   1.406       .  A
C680       Br685   1.932       .  S
C681        C682   1.408       .  A
C682       Br683   1.927       .  S
C687        C688   1.412       .  A
C687        C692   1.418       .  A
C687       Br694   1.927       .  S
C688        C689   1.402       .  A
C689        C690   1.405       .  A
C689       Br696   1.936       .  S
C690        C691   1.420       .  A
C690       Br695   1.917       .  S
C691        C692   1.417       .  A
C692       Br693   1.927       .  S
C697        C698   1.416       .  A
C697        C702   1.414       .  A
C697       Br704   1.928       .  S
C698        C699   1.416       .  A
C699        C700   1.406       .  A
C699       Br706   1.931       .  S
C700        C701   1.411       .  A
C700       Br705   1.936       .  S
C701        C702   1.410       .  A
C702       Br703   1.928       .  S
C707        C708   1.410       .  A
C707        C712   1.407       .  A
C707       Br714   1.921       .  S
C708        C709   1.410       .  A
C709        C710   1.417       .  A
C709       Br716   1.917       .  S
C710        C711   1.413       .  A
C710       Br715   1.928       .  S
C711        C712   1.412       .  A
C712       Br713   1.930       .  S
C717        C718   1.421       .  A
C717        C722   1.411       .  A
C717       Br724   1.931       .  S
C718        C719   1.429       .  A
C719        C720   1.408       .  A
C719       Br726   1.921       .  S
C720        C721   1.400       .  A
C720       Br725   1.940       .  S
C721        C722   1.406       .  A
C722       Br723   1.934       .  S
C727        C728   1.407       .  A
C727        C732   1.404       .  A
C727       Br734   1.933       .  S
C728        C729   1.406       .  A
C729        C730   1.405       .  A
C729       Br736   1.929       .  S
C730        C731   1.414       .  A
C730       Br735   1.933       .  S
C731        C732   1.416       .  A
C732      Br2245   1.937       .  S
Br733      C2244   1.928   1_455  S
C737        C738   1.418       .  A
C737        C742   1.416       .  A
C737       Br744   1.932       .  S
C738        C739   1.420       .  A
C739        C740   1.403       .  A
C739       Br746   1.935       .  S
C740        C741   1.400       .  A
C740       Br745   1.901       .  S
C741        C742   1.422       .  A
C742       Br743   1.932       .  S
C747        C748   1.429       .  A
C747        C752   1.414       .  A
C747       Br754   1.932       .  S
C748        C749   1.437       .  A
C749        C750   1.406       .  A
C749       Br756   1.937       .  S
C750        C751   1.396       .  A
C750       Br755   1.915       .  S
C751        C752   1.412       .  A
C752       Br753   1.930       .  S
N757        C762   1.356       .  A
N757        C761   1.349       .  A
N757        H789   1.038       .  S
N758        C765   1.355       .  A
N758        C766   1.358       .  A
N759        C764   1.350       .  A
N759        C763   1.347       .  A
N759        H790   1.041       .  S
N760        C767   1.352       .  A
N760        C768   1.347       .  A
C761        C769   1.394       .  A
C761        C777   1.425       .  A
C762        C778   1.414       .  A
C762        C770   1.381       .  A
C763        C771   1.396       .  A
C763        C780   1.425       .  A
C764        C779   1.409       .  A
C764        C772   1.381       .  A
C765        C777   1.425       .  A
C765        C773   1.387       .  A
C766        C780   1.429       .  A
C766        C774   1.387       .  A
C767        C775   1.387       .  A
C767        C778   1.392       .  A
C768        C776   1.384       .  A
C768        C779   1.397       .  A
C769        C770   1.378       .  A
C769        H781   1.082       .  S
C770        H782   1.082       .  S
C771        C772   1.389       .  A
C771        H783   1.082       .  S
C772        H784   1.082       .  S
C773        C774   1.377       .  A
C773        H785   1.082       .  S
C774        H786   1.082       .  S
C775        C776   1.364       .  A
C775        H787   1.083       .  S
C776        H788   1.083       .  S
C777       C1477   1.495       .  S
C778       C1484   1.488       .  S
C779       C1504   1.519       .  S
C780       C1494   1.506       .  S
N791        C796   1.356       .  A
N791        C795   1.356       .  A
N791        H823   1.034       .  S
N792        C799   1.353       .  A
N792        C800   1.352       .  A
N793        C798   1.357       .  A
N793        C797   1.356       .  A
N793        H824   1.041       .  S
N794        C801   1.354       .  A
N794        C802   1.353       .  A
C795        C803   1.387       .  A
C795        C811   1.424       .  A
C796        C812   1.427       .  A
C796        C804   1.388       .  A
C797        C805   1.388       .  A
C797        C814   1.423       .  A
C798        C813   1.423       .  A
C798        C806   1.387       .  A
C799        C811   1.419       .  A
C799        C807   1.386       .  A
C800        C814   1.420       .  A
C800        C808   1.388       .  A
C801        C809   1.386       .  A
C801        C812   1.419       .  A
C802        C810   1.387       .  A
C802        C813   1.419       .  A
C803        C804   1.376       .  A
C803        H815   1.082       .  S
C804        H816   1.082       .  S
C805        C806   1.383       .  A
C805        H817   1.082       .  S
C806        H818   1.082       .  S
C807        C808   1.372       .  A
C807        H819   1.081       .  S
C808        H820   1.082       .  S
C809        C810   1.368       .  A
C809        H821   1.080       .  S
C810        H822   1.082       .  S
C811       C1444   1.502       .  S
C812       C1434   1.503       .  S
C813       C1457   1.509       .  S
C814       C1467   1.504       .  S
O825        C833   1.260       .  A
O825       Co845   1.983       .  S
O826        C834   1.278       .  A
O826       Co846   1.996       .  S
O827        C835   1.302       .  A
O827       Co847   2.140       .  S
O828        C836   1.273       .  A
O829        C835   1.260       .  A
O829       Co846   1.889       .  S
O830        C836   1.267       .  A
O830       Co845   1.974       .  S
O831        C834   1.277       .  A
O831       Co848   2.027       .  S
O832        C833   1.266       .  A
C833       C1507   1.511       .  S
C834       C1397   1.525       .  S
C835       C1497   1.503       .  S
C836       C1404   1.514       .  S
O837        C850   1.269       .  A
O837       Co845   2.005       .  S
O838        C851   1.299       .  A
O838       Co846   2.131       .  S
O839        C852   1.273       .  A
O840        C853   1.264       .  A
O840       Co848   2.001       .  S
O841        C853   1.253       .  A
O841       Co846   1.956       .  S
O842        C852   1.277       .  A
O842       Co845   2.028       .  S
O843        C850   1.264       .  A
O844        C851   1.269       .  A
O844       Co847   1.904       .  S
Co846       O849   2.006       .  S
Co847       O849   2.031       .  S
Co848       O849   2.057       .  S
C850       C1427   1.503       .  S
C851       C1454   1.513       .  S
C852       C1464   1.495       .  S
C853       C1414   1.493       .  S
N854        C859   1.363       .  A
N854        C858   1.359       .  A
N854        H886   1.036       .  S
N855        C862   1.352       .  A
N855        C863   1.355       .  A
N856        C861   1.352       .  A
N856        C860   1.355       .  A
N856        H887   1.037       .  S
N857        C864   1.353       .  A
N857        C865   1.352       .  A
C858        C866   1.387       .  A
C858        C874   1.429       .  A
C859        C875   1.432       .  A
C859        C867   1.387       .  A
C860        C868   1.387       .  A
C860        C877   1.415       .  A
C861        C876   1.415       .  A
C861        C869   1.388       .  A
C862        C874   1.423       .  A
C862        C870   1.391       .  A
C863        C877   1.416       .  A
C863        C871   1.384       .  A
C864        C872   1.388       .  A
C864        C875   1.420       .  A
C865        C873   1.386       .  A
C865        C876   1.416       .  A
C866        C867   1.382       .  A
C866        H878   1.082       .  S
C867        H879   1.082       .  S
C868        C869   1.368       .  A
C868        H880   1.082       .  S
C869        H881   1.082       .  S
C870        C871   1.364       .  A
C870        H882   1.081       .  S
C871        H883   1.082       .  S
C872        C873   1.369       .  A
C872        H884   1.082       .  S
C873        H885   1.082       .  S
C874       C1407   1.503       .  S
C875       C1394   1.512       .  S
C876       C1374   1.483       .  S
C877       C1387   1.495       .  S
N888        C893   1.353       .  A
N888        C892   1.358       .  A
N888        H920   1.040       .  S
N889        C896   1.350       .  A
N889        C897   1.348       .  A
N890        C895   1.352       .  A
N890        C894   1.349       .  A
N890        H921   1.040       .  S
N891        C898   1.350       .  A
N891        C899   1.355       .  A
C892        C900   1.386       .  A
C892        C908   1.417       .  A
C893        C909   1.419       .  A
C893        C901   1.389       .  A
C894        C902   1.387       .  A
C894        C911   1.412       .  A
C895        C910   1.414       .  A
C895        C903   1.386       .  A
C896        C908   1.410       .  A
C896        C904   1.385       .  A
C897        C911   1.411       .  A
C897        C905   1.386       .  A
C898        C906   1.385       .  A
C898        C909   1.413       .  A
C899        C907   1.386       .  A
C899        C910   1.421       .  A
C900        C901   1.371       .  A
C900        H912   1.082       .  S
C901        H913   1.082       .  S
C902        C903   1.378       .  A
C902        H914   1.082       .  S
C903        H915   1.082       .  S
C904        C905   1.375       .  A
C904        H916   1.082       .  S
C905        H917   1.080       .  S
C906        C907   1.374       .  A
C906        H918   1.082       .  S
C907        H919   1.079       .  S
C908       C1354   1.501       .  S
C909       C1364   1.487       .  S
C910       C1424   1.507       .  S
C911       C1417   1.481       .  S
C922       N2452   1.353       .  A
C922        C959   1.473       .  S
C922       C1474   1.508       .  S
N923        N940   1.326       .  A
N923        N945   1.318       .  A
N923       Co960   2.092       .  S
C924        N949   1.343       .  A
C924        H969   1.078       .  S
C924       C2474   1.474   1_455  S
H925        C966   1.082       .  S
C926        N950   1.354       .  A
C926        H955   1.081       .  S
C926        C930   1.477       .  S
Co927      N1701   2.109       .  S
Co927      N2447   2.070   1_545  S
Co927      N1723   2.055       .  S
Co927      N2455   2.093   1_545  S
Co927     Cl2483   2.433       .  S
N928        C966   1.338       .  A
N928        N935   1.320   1_455  A
N928       Co929   2.093       .  S
Co929       N932   2.070       .  S
Co929       N949   2.076       .  S
Co929       N936   2.114       .  S
Co929      Cl971   2.464       .  S
C930        N968   1.343       .  A
C930       C1447   1.488       .  S
N931        N938   1.319       .  A
N931        N961   1.331       .  A
N931       Co964   2.103       .  S
N932        N950   1.322       .  A
N932        N968   1.318       .  A
N933        C962   1.347       .  A
N933       N2455   1.317       .  A
H934        C959   1.080       .  S
N935       N2468   1.325       .  A
N935      Co2439   2.066       .  S
N936        N954   1.319       .  A
N936        N941   1.334       .  A
C937        N941   1.362       .  A
C937        C965   1.455       .  S
C937       C1327   1.500       .  S
N938        C953   1.332       .  A
N938       Co960   2.074       .  S
C939       N2479   1.338       .  A
C939        H973   1.080       .  S
C939        C942   1.453       .  S
N940       C2434   1.353       .  A
C942       N2475   1.362       .  A
C942       C1337   1.499       .  S
N943       N2445   1.319       .  A
N943        N949   1.317   1_655  A
N943      Co2439   2.095       .  S
N944        C970   1.339       .  A
N944        N946   1.322       .  A
N944       Co960   2.064       .  S
N945       C2471   1.344   1_455  A
N945      Co1683   2.107   1_455  S
N946        N974   1.328       .  A
N946       Co964   2.127       .  S
H947        C970   1.081       .  S
H948        C965   1.081       .  S
N951        N963   1.332       .  A
N951        N967   1.317   1_455  A
N951       Co960   2.096       .  S
C952        N956   1.348       .  A
C952       C2478   1.455       .  S
C952       C1487   1.473       .  S
C953        H957   1.077       .  S
C953        C972   1.451       .  S
N954        C965   1.332       .  A
N956       N2447   1.328       .  A
C958        N974   1.356       .  A
C958        C970   1.452       .  S
C958       C1344   1.478       .  S
C959       N2457   1.341       .  A
N961        C972   1.357       .  A
C962       C2436   1.470       .  S
C962       C1314   1.493       .  S
N963       C2454   1.356   1_455  A
C966       C2464   1.458   1_455  S
N967       C2451   1.332       .  A
N967      Co1683   2.069       .  S
Cl971     Co2439   2.440   1_455  S
C972       C1437   1.481       .  S
O975       C2495   1.270       .  A
O975      Co2507   1.974   1_556  S
O976        C984   1.266       .  A
O976       Co996   1.911   1_554  S
O977        C985   1.274       .  A
O977       Co997   2.026       .  S
O978       C2498   1.268       .  A
O978       Co998   2.023       .  S
O979        C985   1.264       .  A
O979       Co996   1.971       .  S
O980        C986   1.249       .  A
O980      Co2507   1.957       .  S
O981        C984   1.304       .  A
O981       Co998   2.154       .  S
O982        C983   1.264       .  A
O982       Co997   2.017       .  S
C983       C2816   1.498   1_455  S
C983       O2487   1.266       .  A
C984       C1237   1.529       .  S
C985       C1297   1.508       .  S
C986       C1244   1.492       .  S
C986       O2490   1.269       .  A
O987       C2512   1.276       .  A
O987      Co2507   2.030       .  S
O988       C1001   1.277       .  A
O988       Co996   2.033       .  S
O989       C1002   1.267   1_455  A
O989       Co997   1.975       .  S
O990       C1003   1.270       .  A
O990       Co998   1.894       .  S
O991       C1003   1.289       .  A
O991       Co996   2.100   1_554  S
O992       C2514   1.260       .  A
O992      Co2507   1.976   1_556  S
O993       C1000   1.274       .  A
O993       Co998   2.005       .  S
O994       C1001   1.259       .  A
O994       Co997   1.977       .  S
Co995      O2487   1.973       .  S
Co995      O2492   1.954   1_556  S
Co995      O2499   2.038   1_456  S
Co995      O2504   1.978   1_455  S
Co995       O999   2.039       .  S
Co996       O999   2.023       .  S
Co997       O999   2.076       .  S
Co998       O999   2.051   1_554  S
C1000      C2776   1.502   1_455  S
C1000      O2499   1.277   1_455  A
C1001      C1274   1.487       .  S
C1002      C2796   1.487       .  S
C1002      O2504   1.263       .  A
C1003      C1257   1.487       .  S
N1004      C1009   1.356       .  A
N1004      C1008   1.357       .  A
N1004      H1036   1.045       .  S
N1005      C1012   1.339       .  A
N1005      C1013   1.343       .  A
N1006      C1011   1.344       .  A
N1006      C1010   1.351       .  A
N1006      H1037   1.045       .  S
N1007      C1014   1.360       .  A
N1007      C1015   1.363       .  A
C1008      C1016   1.382       .  A
C1008      C1024   1.409       .  A
C1009      C1025   1.417       .  A
C1009      C1017   1.373       .  A
C1010      C1018   1.380       .  A
C1010      C1027   1.401       .  A
C1011      C1026   1.413       .  A
C1011      C1019   1.390       .  A
C1012      C1024   1.399       .  A
C1012      C1020   1.390       .  A
C1013      C1027   1.393       .  A
C1013      C1021   1.382       .  A
C1014      C1022   1.386       .  A
C1014      C1025   1.441       .  A
C1015      C1023   1.383       .  A
C1015      C1026   1.436       .  A
C1016      C1017   1.382       .  A
C1016      H1028   1.080       .  S
C1017      H1029   1.065       .  S
C1018      C1019   1.376       .  A
C1018      H1030   1.082       .  S
C1019      H1031   1.077       .  S
C1020      C1021   1.375       .  A
C1020      H1032   1.082       .  S
C1021      H1033   1.082       .  S
C1022      C1023   1.371       .  A
C1022      H1034   1.074       .  S
C1023      H1035   1.071       .  S
C1024      C1224   1.487       .  S
C1025      C1287   1.569       .  S
C1026      C1277   1.532       .  S
C1027      C1214   1.478       .  S
N1038      C1043   1.352       .  A
N1038      C1042   1.352       .  A
N1038      H1070   1.036       .  S
N1039      C1046   1.351       .  A
N1039      C1047   1.350       .  A
N1040      C1045   1.359       .  A
N1040      C1044   1.359       .  A
N1040      H1071   1.039       .  S
N1041      C1048   1.352       .  A
N1041      C1049   1.353       .  A
C1042      C1050   1.387       .  A
C1042      C1058   1.411       .  A
C1043      C1059   1.413       .  A
C1043      C1051   1.388       .  A
C1044      C1052   1.378       .  A
C1044      C1061   1.415       .  A
C1045      C1060   1.430       .  A
C1045      C1053   1.386       .  A
C1046      C1058   1.409       .  A
C1046      C1054   1.385       .  A
C1047      C1061   1.411       .  A
C1047      C1055   1.387       .  A
C1048      C1056   1.382       .  A
C1048      C1059   1.411       .  A
C1049      C1057   1.390       .  A
C1049      C1060   1.426       .  A
C1050      C1051   1.366       .  A
C1050      H1062   1.082       .  S
C1051      H1063   1.082       .  S
C1052      C1053   1.378       .  A
C1052      H1064   1.082       .  S
C1053      H1065   1.074       .  S
C1054      C1055   1.368       .  A
C1054      H1066   1.082       .  S
C1055      H1067   1.082       .  S
C1056      C1057   1.372       .  A
C1056      H1068   1.082       .  S
C1057      H1069   1.081       .  S
C1058      C1194   1.482       .  S
C1059      C1204   1.487       .  S
C1060      C1307   1.505       .  S
C1061      C1294   1.496       .  S
C1072      N1090   1.360       .  A
C1072      C2621   1.448       .  S
C1072      C1384   1.487       .  S
N1073      N1090   1.332       .  A
N1073      N2607   1.316       .  A
N1073     Co1110   2.096   1_565  S
C1074      N1099   1.349       .  A
C1074      H1119   1.080       .  S
C1074      C1112   1.478       .  S
H1075      C1116   1.081       .  S
C1076      N1100   1.334       .  A
C1076      H1105   1.082       .  S
C1076      C1080   1.454       .  S
Co1077     N1095   2.058       .  S
Co1077     N1085   2.067       .  S
Co1077    Cl1121   2.394       .  S
N1078      C1116   1.347       .  A
N1078      N1085   1.317       .  A
N1078     Co1079   2.094       .  S
Co1079     N1082   2.087       .  S
Co1079    Cl1121   2.482       .  S
C1080      N1118   1.354       .  A
C1080      C1217   1.476       .  S
N1081      N2600   1.320   1_455  A
N1081      N1111   1.322       .  A
N1081     Co1114   2.077   1_565  S
N1082      N1100   1.318       .  A
N1082      N1118   1.324       .  A
N1083      C1112   1.344       .  A
N1083      N1093   1.316       .  A
H1084      C1109   1.077       .  S
N1085      N1106   1.318       .  A
N1086      N1104   1.319       .  A
N1086      N1091   1.323       .  A
C1087      N1091   1.350       .  A
C1087      C1115   1.458       .  S
C1087      C1197   1.467       .  S
N1088      C1103   1.347       .  A
N1088      N2593   1.319       .  A
N1088     Co1110   2.107   1_565  S
C1089      N1117   1.332       .  A
C1089      H1123   1.082       .  S
C1089      C2604   1.451   1_455  S
C1092      N1113   1.352       .  A
C1092      C2601   1.448       .  S
C1092      C1377   1.469       .  S
N1093      N1099   1.315       .  A
N1094      C1120   1.342       .  A
N1094      N2608   1.317       .  A
N1095      C1109   1.325       .  A
N1095      N2585   1.318   1_455  A
N1096      N2606   1.317   1_455  A
N1096      N1124   1.323       .  A
H1097      C1120   1.082       .  S
H1098      C1115   1.082       .  S
N1100     Co1114   2.065   1_565  S
N1101      N1113   1.326       .  A
N1101      N2629   1.317       .  A
C1102      N1106   1.345       .  A
C1102      C1116   1.475       .  S
C1102      C1367   1.491       .  S
C1103      H1107   1.081       .  S
C1103      C1122   1.475       .  S
N1104      C1115   1.337       .  A
C1108      N2636   1.350       .  A
C1108      C1120   1.466       .  S
C1108      C1207   1.477       .  S
C1109      C2584   1.449   1_455  S
Co1110    Cl2633   2.495       .  S
N1111      C2634   1.345   1_455  A
C1112      C1357   1.499       .  S
Co1114    Cl1121   2.406   1_545  S
N1117      N2613   1.316   1_455  A
Cl1121    Co2622   2.495   1_465  S
C1122      N2623   1.346       .  A
C1122      C1227   1.495       .  S
N1124      C2620   1.351   1_455  A
N1125      C1130   1.349       .  A
N1125      C1129   1.362       .  A
N1125      H1157   1.038       .  S
N1126      C1133   1.352       .  A
N1126      C1134   1.344       .  A
N1127      C1132   1.362       .  A
N1127      C1131   1.355       .  A
N1127      H1158   1.041       .  S
N1128      C1135   1.354       .  A
N1128      C1136   1.360       .  A
C1129      C1137   1.382       .  A
C1129      C1145   1.419       .  A
C1130      C1146   1.424       .  A
C1130      C1138   1.393       .  A
C1131      C1139   1.389       .  A
C1131      C1148   1.427       .  A
C1132      C1147   1.428       .  A
C1132      C1140   1.386       .  A
C1133      C1145   1.407       .  A
C1133      C1141   1.382       .  A
C1134      C1148   1.412       .  A
C1134      C1142   1.391       .  A
C1135      C1143   1.388       .  A
C1135      C1146   1.423       .  A
C1136      C1144   1.385       .  A
C1136      C1147   1.425       .  A
C1137      C1138   1.377       .  A
C1137      H1149   1.082       .  S
C1138      H1150   1.081       .  S
C1139      C1140   1.385       .  A
C1139      H1151   1.082       .  S
C1140      H1152   1.082       .  S
C1141      C1142   1.372       .  A
C1141      H1153   1.082       .  S
C1142      H1154   1.082       .  S
C1143      C1144   1.374       .  A
C1143      H1155   1.082       .  S
C1144      H1156   1.082       .  S
C1145      C1334   1.507       .  S
C1146      C1347   1.488       .  S
C1147      C1234   1.529       .  S
C1148      C1247   1.491       .  S
N1159      C1164   1.354       .  A
N1159      C1163   1.350       .  A
N1159      H1191   1.037       .  S
N1160      C1167   1.344       .  A
N1160      C1168   1.349       .  A
N1161      C1166   1.346       .  A
N1161      C1165   1.359       .  A
N1161      H1192   1.044       .  S
N1162      C1169   1.351       .  A
N1162      C1170   1.348       .  A
C1163      C1171   1.389       .  A
C1163      C1179   1.419       .  A
C1164      C1180   1.414       .  A
C1164      C1172   1.384       .  A
C1165      C1173   1.386       .  A
C1165      C1182   1.419       .  A
C1166      C1181   1.416       .  A
C1166      C1174   1.389       .  A
C1167      C1179   1.412       .  A
C1167      C1175   1.390       .  A
C1168      C1182   1.405       .  A
C1168      C1176   1.383       .  A
C1169      C1177   1.382       .  A
C1169      C1180   1.413       .  A
C1170      C1178   1.390       .  A
C1170      C1181   1.420       .  A
C1171      C1172   1.377       .  A
C1171      H1183   1.082       .  S
C1172      H1184   1.082       .  S
C1173      C1174   1.387       .  A
C1173      H1185   1.082       .  S
C1174      H1186   1.083       .  S
C1175      C1176   1.375       .  A
C1175      H1187   1.082       .  S
C1176      H1188   1.082       .  S
C1177      C1178   1.374       .  A
C1177      H1189   1.082       .  S
C1178      H1190   1.081       .  S
C1179      C1317   1.481       .  S
C1180      C1324   1.496       .  S
C1181      C1254   1.518       .  S
C1182      C1267   1.508       .  S
C1193      C1194   1.408       .  A
C1193      C1198   1.405       .  A
C1193     Br1200   1.929       .  S
C1194      C1195   1.409       .  A
C1195      C1196   1.402       .  A
C1195     Br1202   1.933       .  S
C1196      C1197   1.410       .  A
C1196     Br1201   1.928       .  S
C1197      C1198   1.406       .  A
C1198     Br1199   1.928       .  S
C1203      C1204   1.410       .  A
C1203      C1208   1.403       .  A
C1203     Br1210   1.932       .  S
C1204      C1205   1.408       .  A
C1205      C1206   1.410       .  A
C1205     Br1212   1.928       .  S
C1206      C1207   1.411       .  A
C1206     Br1211   1.928       .  S
C1207      C1208   1.413       .  A
C1208     Br1209   1.936       .  S
C1213      C1214   1.408       .  A
C1213      C1218   1.405       .  A
C1213     Br1220   1.930       .  S
C1214      C1215   1.404       .  A
C1215      C1216   1.404       .  A
C1215     Br1222   1.933       .  S
C1216      C1217   1.420       .  A
C1216     Br1221   1.935       .  S
C1217      C1218   1.408       .  A
C1218     Br1219   1.931       .  S
C1223      C1224   1.412       .  A
C1223      C1228   1.411       .  A
C1223     Br1230   1.930       .  S
C1224      C1225   1.405       .  A
C1225      C1226   1.408       .  A
C1225     Br1232   1.934       .  S
C1226      C1227   1.423       .  A
C1226     Br1231   1.934       .  S
C1227      C1228   1.415       .  A
C1228     Br1229   1.930       .  S
C1233      C1234   1.412       .  A
C1233      C1238   1.418       .  A
C1233     Br1240   1.935       .  S
C1234      C1235   1.417       .  A
C1235      C1236   1.428       .  A
C1235     Br1242   1.929       .  S
C1236      C1237   1.424       .  A
C1236     Br1241   1.928   1_554  S
C1237      C1238   1.423       .  A
C1238     Br1239   1.919       .  S
C1243      C1244   1.423       .  A
C1243      C1248   1.408       .  A
C1243     Br1250   1.933       .  S
C1244      C1245   1.406       .  A
C1245      C1246   1.405       .  A
C1245     Br2764   1.929       .  S
C1246      C1247   1.416       .  A
C1246     Br1251   1.932       .  S
C1247      C1248   1.407       .  A
C1248     Br1249   1.935       .  S
Br1252     C2757   1.930       .  S
C1253      C1254   1.416       .  A
C1253      C1258   1.410       .  A
C1253     Br1260   1.932       .  S
C1254      C1255   1.403       .  A
C1255      C1256   1.400       .  A
C1255     Br1262   1.933       .  S
C1256      C1257   1.425       .  A
C1256     Br1261   1.924       .  S
C1257      C1258   1.410       .  A
C1258     Br1259   1.926       .  S
C1263      C1264   1.410       .  A
C1263      C1268   1.420       .  A
C1263     Br1270   1.923       .  S
C1264      C1265   1.405       .  A
C1264      C2512   1.493       .  S
C1265      C1266   1.408       .  A
C1265     Br2784   1.918       .  S
C1266      C1267   1.416       .  A
C1266     Br1271   1.930       .  S
C1267      C1268   1.416       .  A
C1268     Br1269   1.926       .  S
Br1272     C2777   1.913   1_455  S
C1273      C1274   1.413       .  A
C1273      C1278   1.404       .  A
C1273     Br1280   1.920       .  S
C1274      C1275   1.408       .  A
C1275      C1276   1.416       .  A
C1275     Br1282   1.918       .  S
C1276      C1277   1.408       .  A
C1276     Br1281   1.930       .  S
C1277      C1278   1.411       .  A
C1278     Br1279   1.930       .  S
C1283      C1284   1.629       .  A
C1283      C1288   1.633       .  A
C1283     Br1290   1.915       .  S
C1284      C1285   1.636       .  A
C1284      C2514   1.488       .  S
C1285      C1286   1.628       .  A
C1285     Br1292   1.926       .  S
C1286      C1287   1.641       .  A
C1286     Br1291   1.932       .  S
C1287      C1288   1.658       .  A
C1288     Br1289   1.923       .  S
C1293      C1294   1.412       .  A
C1293      C1298   1.421       .  A
C1293     Br1300   1.925       .  S
C1294      C1295   1.401       .  A
C1295      C1296   1.403       .  A
C1295     Br1302   1.939       .  S
C1296      C1297   1.422       .  A
C1296     Br1301   1.914       .  S
C1297      C1298   1.419       .  A
C1298     Br1299   1.929       .  S
C1303      C1304   1.408       .  A
C1303      C1308   1.470       .  A
C1303     Br1310   1.922       .  S
C1304      C1305   1.376       .  A
C1304      C2495   1.479       .  S
C1305      C1306   1.395       .  A
C1305     Br1312   1.925       .  S
C1306      C1307   1.451       .  A
C1306     Br1311   1.936       .  S
C1307      C1308   1.491       .  A
C1308     Br1309   3.691       .  S
C1313      C1314   1.422       .  A
C1313      C1318   1.405       .  A
C1313     Br1320   1.931       .  S
C1314      C1315   1.427       .  A
C1315      C1316   1.400       .  A
C1315     Br1322   1.937       .  S
C1316      C1317   1.402       .  A
C1316     Br1321   1.937       .  S
C1317      C1318   1.405       .  A
C1318     Br1319   1.933       .  S
C1323      C1324   1.406       .  A
C1323      C1328   1.403       .  A
C1323     Br1330   1.940       .  S
C1324      C1325   1.410       .  A
C1325      C1326   1.420       .  A
C1325     Br1332   1.926       .  S
C1326      C1327   1.419       .  A
C1326     Br1331   1.927       .  S
C1327      C1328   1.419       .  A
C1328     Br1329   1.923       .  S
C1333      C1334   1.415       .  A
C1333      C1338   1.418       .  A
C1333     Br1340   1.929       .  S
C1334      C1335   1.410       .  A
C1335      C1336   1.413       .  A
C1335     Br1342   1.928       .  S
C1336      C1337   1.415       .  A
C1336     Br2853   1.929       .  S
C1337      C1338   1.412       .  A
C1338     Br1339   1.927       .  S
Br1341     C2848   1.931       .  S
C1343      C1344   1.405       .  A
C1343      C1348   1.405       .  A
C1343     Br1350   1.926       .  S
C1344      C1345   1.411       .  A
C1345      C1346   1.407       .  A
C1345     Br1352   1.928       .  S
C1346      C1347   1.411       .  A
C1346     Br1351   1.931       .  S
C1347      C1348   1.410       .  A
C1348     Br1349   1.929       .  S
C1353      C1354   1.412       .  A
C1353      C1358   1.414       .  A
C1353     Br1360   1.931       .  S
C1354      C1355   1.410       .  A
C1355      C1356   1.403       .  A
C1355     Br1362   1.937       .  S
C1356      C1357   1.423       .  A
C1356     Br1361   1.940       .  S
C1357      C1358   1.419       .  A
C1358     Br1359   1.928       .  S
C1363      C1364   1.407       .  A
C1363      C1368   1.412       .  A
C1363     Br1370   1.931       .  S
C1364      C1365   1.405       .  A
C1365      C1366   1.402       .  A
C1365     Br1372   1.938       .  S
C1366      C1367   1.419       .  A
C1366     Br1371   1.933       .  S
C1367      C1368   1.420       .  A
C1368     Br1369   1.928       .  S
C1373      C1374   1.409       .  A
C1373      C1378   1.405       .  A
C1373     Br1380   1.930       .  S
C1374      C1375   1.407       .  A
C1375      C1376   1.401       .  A
C1375     Br1382   1.932       .  S
C1376      C1377   1.412       .  A
C1376     Br2893   1.934       .  S
C1377      C1378   1.410       .  A
C1378     Br1379   1.931       .  S
Br1381     C2888   1.935   1_455  S
C1383      C1384   1.414       .  A
C1383      C1388   1.394       .  A
C1383     Br1390   1.936       .  S
C1384      C1385   1.412       .  A
C1385      C1386   1.415       .  A
C1385     Br1392   1.926       .  S
C1386      C1387   1.414       .  A
C1386     Br1391   1.926       .  S
C1387      C1388   1.407       .  A
C1388     Br1389   1.934       .  S
C1393      C1394   1.412       .  A
C1393      C1398   1.423       .  A
C1393     Br1400   1.927       .  S
C1394      C1395   1.408       .  A
C1395      C1396   1.414       .  A
C1395     Br1402   1.940       .  S
C1396      C1397   1.432       .  A
C1396     Br1401   1.936       .  S
C1397      C1398   1.422       .  A
C1398     Br1399   1.930       .  S
C1403      C1404   1.423       .  A
C1403      C1408   1.418       .  A
C1403     Br1410   1.931       .  S
C1404      C1405   1.429       .  A
C1405      C1406   1.410       .  A
C1405     Br1412   1.935       .  S
C1406      C1407   1.406       .  A
C1406     Br1411   1.934       .  S
C1407      C1408   1.409       .  A
C1408     Br1409   1.930       .  S
C1413      C1414   1.419       .  A
C1413      C1418   1.413       .  A
C1413     Br1420   1.926       .  S
C1414      C1415   1.421       .  A
C1415      C1416   1.392       .  A
C1415     Br1422   1.941       .  S
C1416      C1417   1.400       .  A
C1416     Br1421   1.925       .  S
C1417      C1418   1.407       .  A
C1418     Br1419   1.927       .  S
C1423      C1424   1.412       .  A
C1423      C1428   1.417       .  A
C1423     Br1430   1.932       .  S
C1424      C1425   1.414       .  A
C1425      C1426   1.401       .  A
C1425     Br1432   1.920       .  S
C1426      C1427   1.413       .  A
C1426     Br1431   1.941       .  S
C1427      C1428   1.423       .  A
C1428     Br1429   1.924       .  S
C1433      C1434   1.416       .  A
C1433      C1438   1.411       .  A
C1433     Br1440   1.932       .  S
C1434      C1435   1.414       .  A
C1435      C1436   1.410       .  A
C1435     Br1442   1.930       .  S
C1436      C1437   1.409       .  A
C1436     Br1441   1.932       .  S
C1437      C1438   1.406       .  A
C1438     Br1439   1.927       .  S
C1443      C1444   1.417       .  A
C1443      C1448   1.416       .  A
C1443     Br1450   1.929       .  S
C1444      C1445   1.408       .  A
C1445      C1446   1.405       .  A
C1445     Br1452   1.931       .  S
C1446      C1447   1.410       .  A
C1446     Br1451   1.919       .  S
C1447      C1448   1.410       .  A
C1448     Br1449   1.927       .  S
C1453      C1454   1.420       .  A
C1453      C1458   1.417       .  A
C1453     Br1460   1.923       .  S
C1454      C1455   1.415       .  A
C1455      C1456   1.408       .  A
C1455     Br1462   1.928       .  S
C1456      C1457   1.413       .  A
C1456     Br1461   1.934       .  S
C1457      C1458   1.411       .  A
C1458     Br1459   1.931       .  S
C1463      C1464   1.405       .  A
C1463      C1468   1.407       .  A
C1463     Br1470   1.912       .  S
C1464      C1465   1.409       .  A
C1465      C1466   1.415       .  A
C1465     Br1472   1.914       .  S
C1466      C1467   1.412       .  A
C1466     Br1471   1.927       .  S
C1467      C1468   1.412       .  A
C1468     Br1469   1.931       .  S
C1473      C1474   1.423       .  A
C1473      C1478   1.412       .  A
C1473     Br1480   1.933       .  S
C1474      C1475   1.426       .  A
C1475      C1476   1.410       .  A
C1475     Br1482   1.923       .  S
C1476      C1477   1.403       .  A
C1476     Br1481   1.938       .  S
C1477      C1478   1.407       .  A
C1478     Br1479   1.934       .  S
C1483      C1484   1.414       .  A
C1483      C1488   1.408       .  A
C1483     Br1490   1.926       .  S
C1484      C1485   1.413       .  A
C1485      C1486   1.408       .  A
C1485     Br1492   1.929       .  S
C1486      C1487   1.405       .  A
C1486     Br1491   1.927       .  S
C1487      C1488   1.404       .  A
C1488     Br3001   1.931       .  S
Br1489     C3000   1.926       .  S
C1493      C1494   1.415       .  A
C1493      C1498   1.416       .  A
C1493     Br1500   1.931       .  S
C1494      C1495   1.412       .  A
C1495      C1496   1.405       .  A
C1495     Br1502   1.937       .  S
C1496      C1497   1.411       .  A
C1496     Br1501   1.905       .  S
C1497      C1498   1.417       .  A
C1498     Br1499   1.927       .  S
C1503      C1504   1.423       .  A
C1503      C1508   1.419       .  A
C1503     Br1510   1.936       .  S
C1504      C1505   1.427       .  A
C1505      C1506   1.404       .  A
C1505     Br1512   1.937       .  S
C1506      C1507   1.409       .  A
C1506     Br1511   1.922       .  S
C1507      C1508   1.420       .  A
C1508     Br1509   1.929       .  S
N1513      C1518   1.351       .  A
N1513      C1517   1.347       .  A
N1513      H1545   1.038       .  S
N1514      C1521   1.353       .  A
N1514      C1522   1.356       .  A
N1515      C1520   1.350       .  A
N1515      C1519   1.350       .  A
N1515      H1546   1.041       .  S
N1516      C1523   1.353       .  A
N1516      C1524   1.351       .  A
C1517      C1525   1.394       .  A
C1517      C1533   1.420       .  A
C1518      C1534   1.407       .  A
C1518      C1526   1.381       .  A
C1519      C1527   1.396       .  A
C1519      C1536   1.431       .  A
C1520      C1535   1.414       .  A
C1520      C1528   1.382       .  A
C1521      C1533   1.420       .  A
C1521      C1529   1.384       .  A
C1522      C1536   1.427       .  A
C1522      C1530   1.389       .  A
C1523      C1531   1.387       .  A
C1523      C1534   1.395       .  A
C1524      C1532   1.384       .  A
C1524      C1535   1.401       .  A
C1525      C1526   1.378       .  A
C1525      H1537   1.081       .  S
C1526      H1538   1.082       .  S
C1527      C1528   1.392       .  A
C1527      H1539   1.082       .  S
C1528      H1540   1.082       .  S
C1529      C1530   1.380       .  A
C1529      H1541   1.082       .  S
C1530      H1542   1.082       .  S
C1531      C1532   1.363       .  A
C1531      H1543   1.083       .  S
C1532      H1544   1.083       .  S
C1533      C2233   1.494       .  S
C1534      C2240   1.479       .  S
C1535      C2260   1.521       .  S
C1536      C2250   1.517       .  S
N1547      C1552   1.354       .  A
N1547      C1551   1.354       .  A
N1547      H1579   1.040       .  S
N1548      C1555   1.351       .  A
N1548      C1556   1.350       .  A
N1549      C1554   1.357       .  A
N1549      C1553   1.358       .  A
N1549      H1580   1.041       .  S
N1550      C1557   1.353       .  A
N1550      C1558   1.351       .  A
C1551      C1559   1.388       .  A
C1551      C1567   1.420       .  A
C1552      C1568   1.417       .  A
C1552      C1560   1.387       .  A
C1553      C1561   1.386       .  A
C1553      C1570   1.424       .  A
C1554      C1569   1.427       .  A
C1554      C1562   1.389       .  A
C1555      C1567   1.414       .  A
C1555      C1563   1.385       .  A
C1556      C1570   1.415       .  A
C1556      C1564   1.387       .  A
C1557      C1565   1.383       .  A
C1557      C1568   1.413       .  A
C1558      C1566   1.390       .  A
C1558      C1569   1.422       .  A
C1559      C1560   1.379       .  A
C1559      H1571   1.082       .  S
C1560      H1572   1.082       .  S
C1561      C1562   1.385       .  A
C1561      H1573   1.082       .  S
C1562      H1574   1.082       .  S
C1563      C1564   1.379       .  A
C1563      H1575   1.082       .  S
C1564      H1576   1.082       .  S
C1565      C1566   1.369       .  A
C1565      H1577   1.082       .  S
C1566      H1578   1.082       .  S
C1567      C2200   1.538       .  S
C1568      C2190   1.495       .  S
C1569      C2213   1.502       .  S
C1570      C2223   1.506       .  S
O1581      C1589   1.263       .  A
O1581     Co1601   1.987       .  S
O1582      C1590   1.274       .  A
O1582     Co1602   1.993       .  S
O1583      C1591   1.311       .  A
O1583     Co1603   2.154       .  S
O1584      C1592   1.274       .  A
O1584     Co2360   2.021       .  S
O1585      C1591   1.259       .  A
O1585     Co1602   1.878       .  S
O1586      C1592   1.275       .  A
O1586     Co1601   1.990       .  S
O1587      C1590   1.274       .  A
O1587     Co1604   2.025   1_545  S
O1588      C1589   1.264       .  A
O1588     Co2359   2.011       .  S
C1589      C2263   1.514       .  S
C1590      C2153   1.528       .  S
C1591      C2253   1.515       .  S
C1592      C2160   1.523       .  S
O1593      C1606   1.262       .  A
O1593     Co1601   1.982       .  S
O1594      C1607   1.298       .  A
O1594     Co1602   2.125       .  S
O1595      C1608   1.276       .  A
O1595     Co2359   2.006       .  S
O1596      C1609   1.265       .  A
O1596     Co1604   2.005   1_545  S
O1597      C1609   1.259       .  A
O1597     Co1602   1.983       .  S
O1598      C1608   1.278       .  A
O1598     Co1601   2.024       .  S
O1599      C1606   1.266       .  A
O1599     Co2360   1.991       .  S
O1600      C1607   1.266       .  A
O1600     Co1603   1.894       .  S
Co1601     O2361   2.053       .  S
Co1602     O1605   2.015   1_545  S
Co1603     O2344   2.022   1_545  S
Co1603     O2351   2.010   1_545  S
Co1603     O1605   2.040   1_545  S
Co1604     O2340   2.037       .  S
Co1604     O2355   1.981       .  S
Co1604     O1605   2.057       .  S
O1605     Co2357   2.062       .  S
C1606      C2183   1.504       .  S
C1607      C2210   1.501       .  S
C1608      C2220   1.493       .  S
C1609      C2170   1.498       .  S
N1610      C1615   1.364       .  A
N1610      C1614   1.362       .  A
N1610      H1642   1.038       .  S
N1611      C1618   1.353       .  A
N1611      C1619   1.355       .  A
N1612      C1617   1.354       .  A
N1612      C1616   1.356       .  A
N1612      H1643   1.033       .  S
N1613      C1620   1.353       .  A
N1613      C1621   1.353       .  A
C1614      C1622   1.387       .  A
C1614      C1630   1.435       .  A
C1615      C1631   1.435       .  A
C1615      C1623   1.387       .  A
C1616      C1624   1.388       .  A
C1616      C1633   1.421       .  A
C1617      C1632   1.420       .  A
C1617      C1625   1.388       .  A
C1618      C1630   1.423       .  A
C1618      C1626   1.390       .  A
C1619      C1633   1.420       .  A
C1619      C1627   1.385       .  A
C1620      C1628   1.387       .  A
C1620      C1631   1.420       .  A
C1621      C1629   1.386       .  A
C1621      C1632   1.418       .  A
C1622      C1623   1.386       .  A
C1622      H1634   1.081       .  S
C1623      H1635   1.082       .  S
C1624      C1625   1.367       .  A
C1624      H1636   1.081       .  S
C1625      H1637   1.082       .  S
C1626      C1627   1.365       .  A
C1626      H1638   1.082       .  S
C1627      H1639   1.082       .  S
C1628      C1629   1.371       .  A
C1628      H1640   1.082       .  S
C1629      H1641   1.082       .  S
C1630      C2163   1.512       .  S
C1631      C2150   1.516       .  S
C1632      C2130   1.491       .  S
C1633      C2143   1.501       .  S
N1644      C1649   1.353       .  A
N1644      C1648   1.353       .  A
N1644      H1676   1.041       .  S
N1645      C1652   1.350       .  A
N1645      C1653   1.350       .  A
N1646      C1651   1.350       .  A
N1646      C1650   1.355       .  A
N1646      H1677   1.040       .  S
N1647      C1654   1.351       .  A
N1647      C1655   1.352       .  A
C1648      C1656   1.387       .  A
C1648      C1664   1.414       .  A
C1649      C1665   1.416       .  A
C1649      C1657   1.389       .  A
C1650      C1658   1.387       .  A
C1650      C1667   1.418       .  A
C1651      C1666   1.416       .  A
C1651      C1659   1.387       .  A
C1652      C1664   1.409       .  A
C1652      C1660   1.383       .  A
C1653      C1667   1.416       .  A
C1653      C1661   1.386       .  A
C1654      C1662   1.386       .  A
C1654      C1665   1.415       .  A
C1655      C1663   1.386       .  A
C1655      C1666   1.416       .  A
C1656      C1657   1.372       .  A
C1656      H1668   1.082       .  S
C1657      H1669   1.081       .  S
C1658      C1659   1.382       .  A
C1658      H1670   1.082       .  S
C1659      H1671   1.082       .  S
C1660      C1661   1.375       .  A
C1660      H1672   1.082       .  S
C1661      H1673   1.080       .  S
C1662      C1663   1.378       .  A
C1662      H1674   1.082       .  S
C1663      H1675   1.082       .  S
C1664      C2110   1.494       .  S
C1665      C2120   1.491       .  S
C1666      C2180   1.496       .  S
C1667      C2173   1.501       .  S
C1678      C1715   1.480       .  S
C1678      C2230   1.519       .  S
N1679      N1696   1.323       .  A
N1679      N1701   1.319       .  A
N1679     Co1716   2.083       .  S
C1680      N1705   1.341       .  A
C1680      H1725   1.078       .  S
H1681      C1722   1.082       .  S
C1682      N1706   1.351       .  A
C1682      H1711   1.081       .  S
C1682      C1686   1.473       .  S
N1684      C1722   1.329       .  A
N1684      N1691   1.316       .  A
N1684     Co1685   2.044       .  S
Co1685     N1688   2.061       .  S
Co1685     N1705   2.075       .  S
Co1685     N1692   2.075       .  S
Co1685    Cl1727   2.457       .  S
C1686      N1724   1.340       .  A
C1686      C2203   1.477       .  S
N1687      N1694   1.319       .  A
N1687      N1717   1.330       .  A
N1687     Co1720   2.090       .  S
N1688      N1706   1.320       .  A
N1688      N1724   1.319       .  A
N1689      C1718   1.351       .  A
H1690      C1715   1.080       .  S
N1692      N1710   1.321       .  A
N1692      N1697   1.328       .  A
C1693      N1697   1.349       .  A
C1693      C1721   1.458       .  S
C1693      C2083   1.476       .  S
N1694      C1709   1.333       .  A
N1694     Co1716   2.078       .  S
C1695      H1729   1.081       .  S
C1695      C1698   1.445       .  S
C1698      C2093   1.490       .  S
N1699      N1705   1.315       .  A
N1700      C1726   1.338       .  A
N1700      N1702   1.323       .  A
N1700     Co1716   2.055       .  S
N1702      N1730   1.327       .  A
N1702     Co1720   2.128       .  S
H1703      C1726   1.081       .  S
H1704      C1721   1.080       .  S
N1706     Co2476   2.110       .  S
N1707      N1719   1.334       .  A
N1707      N1723   1.315       .  A
N1707     Co1716   2.105       .  S
C1708      N1712   1.348       .  A
C1708      C2243   1.471       .  S
C1709      H1713   1.077       .  S
C1709      C1728   1.453       .  S
N1710      C1721   1.338       .  A
N1710     Co2476   2.101       .  S
C1714      N1730   1.355       .  A
C1714      C1726   1.449       .  S
C1714      C2100   1.473       .  S
Co1716    Cl2483   2.467       .  S
N1717      C1728   1.355       .  A
C1718      C2070   1.516       .  S
Co1720     N2462   2.133   1_545  S
Co1720     N2466   2.065   1_545  S
Co1720    Cl2483   2.440       .  S
Cl1727    Co2472   2.460       .  S
Cl1727    Co2476   2.448       .  S
C1728      C2193   1.478       .  S
O1732      C1740   1.264       .  A
O1732     Co1752   1.901   1_554  S
O1733      C1741   1.276       .  A
O1733     Co1753   2.033       .  S
O1734     Co1754   2.037       .  S
O1735      C1741   1.261       .  A
O1735     Co1752   1.962       .  S
O1736      C1742   1.247       .  A
O1737      C1740   1.299       .  A
O1737     Co1754   2.136       .  S
O1738      C1739   1.260       .  A
O1738     Co1753   1.988       .  S
C1740      C1993   1.516       .  S
C1741      C2053   1.511       .  S
C1742      C2000   1.495       .  S
O1744      C1757   1.278       .  A
O1744     Co1752   2.040       .  S
O1745      C1758   1.273       .  A
O1745     Co1753   1.985       .  S
O1746      C1759   1.272       .  A
O1746     Co1754   1.903       .  S
O1747      C1759   1.285       .  A
O1747     Co1752   2.089   1_554  S
O1749      C1756   1.273       .  A
O1749     Co1754   1.996       .  S
O1750      C1757   1.261       .  A
O1750     Co1753   1.981       .  S
Co1751     O1755   2.042       .  S
Co1752     O1755   2.015       .  S
Co1753     O1755   2.066       .  S
Co1754     O1755   2.051   1_554  S
C1757      C2030   1.493       .  S
C1759      C2013   1.490       .  S
N1760      C1765   1.354       .  A
N1760      C1764   1.356       .  A
N1760      H1792   1.045       .  S
N1761      C1768   1.340       .  A
N1761      C1769   1.342       .  A
N1762      C1767   1.347       .  A
N1762      C1766   1.352       .  A
N1762      H1793   1.045       .  S
N1763      C1770   1.361       .  A
N1763      C1771   1.364       .  A
C1764      C1772   1.379       .  A
C1764      C1780   1.403       .  A
C1765      C1781   1.415       .  A
C1765      C1773   1.372       .  A
C1766      C1774   1.380       .  A
C1766      C1783   1.402       .  A
C1767      C1782   1.417       .  A
C1767      C1775   1.390       .  A
C1768      C1780   1.398       .  A
C1768      C1776   1.389       .  A
C1769      C1783   1.394       .  A
C1769      C1777   1.384       .  A
C1770      C1778   1.386       .  A
C1770      C1781   1.443       .  A
C1771      C1779   1.383       .  A
C1771      C1782   1.438       .  A
C1772      C1773   1.380       .  A
C1772      H1784   1.081       .  S
C1773      H1785   1.057       .  S
C1774      C1775   1.372       .  A
C1774      H1786   1.082       .  S
C1775      H1787   1.074       .  S
C1776      C1777   1.375       .  A
C1776      H1788   1.082       .  S
C1777      H1789   1.082       .  S
C1778      C1779   1.369       .  A
C1778      H1790   1.074       .  S
C1779      H1791   1.069       .  S
C1780      C1980   1.485       .  S
C1781      C2043   1.567       .  S
C1782      C2033   1.536       .  S
C1783      C1970   1.475       .  S
N1794      C1799   1.354       .  A
N1794      C1798   1.352       .  A
N1794      H1826   1.028       .  S
N1795      C1802   1.353       .  A
N1795      C1803   1.351       .  A
N1796      C1801   1.358       .  A
N1796      C1800   1.357       .  A
N1796      H1827   1.033       .  S
N1797      C1804   1.349       .  A
N1797      C1805   1.350       .  A
C1798      C1806   1.389       .  A
C1798      C1814   1.419       .  A
C1799      C1815   1.414       .  A
C1799      C1807   1.386       .  A
C1800      C1808   1.380       .  A
C1800      C1817   1.418       .  A
C1801      C1816   1.430       .  A
C1801      C1809   1.386       .  A
C1802      C1814   1.416       .  A
C1802      C1810   1.386       .  A
C1803      C1817   1.416       .  A
C1803      C1811   1.387       .  A
C1804      C1812   1.381       .  A
C1804      C1815   1.405       .  A
C1805      C1813   1.392       .  A
C1805      C1816   1.424       .  A
C1806      C1807   1.368       .  A
C1806      H1818   1.082       .  S
C1807      H1819   1.082       .  S
C1808      C1809   1.380       .  A
C1808      H1820   1.082       .  S
C1809      H1821   1.077       .  S
C1810      C1811   1.369       .  A
C1810      H1822   1.082       .  S
C1811      H1823   1.082       .  S
C1812      C1813   1.370       .  A
C1812      H1824   1.082       .  S
C1813      H1825   1.082       .  S
C1814      C1950   1.488       .  S
C1815      C1960   1.485       .  S
C1816      C2063   1.495       .  S
C1817      C2050   1.498       .  S
C1828      N1846   1.359       .  A
C1828      C2140   1.496       .  S
N1829      N1846   1.331       .  A
N1829     Co1866   2.100       .  S
C1830      N1855   1.350       .  A
C1830      H1875   1.081       .  S
C1830      C1868   1.476       .  S
H1831      C1872   1.081       .  S
C1832      N1856   1.334       .  A
C1832      H1861   1.082       .  S
C1832      C1836   1.454       .  S
Co1833     N1851   2.060       .  S
Co1833     N1841   2.057       .  S
Co1833     N2629   2.068       .  S
Co1833     N2605   2.060       .  S
Co1833    Cl1877   2.384       .  S
N1834      C1872   1.350       .  A
N1834      N1841   1.316       .  A
N1834     Co1835   2.097       .  S
Co1835     N1838   2.086       .  S
Co1835     N2611   2.090       .  S
Co1835     N2598   2.080       .  S
Co1835    Cl1877   2.489       .  S
C1836      N1874   1.353       .  A
C1836      C1973   1.471       .  S
N1837      N1867   1.323       .  A
N1837     Co1870   2.086       .  S
N1838      N1856   1.318       .  A
N1838      N1874   1.324       .  A
N1839      C1868   1.342       .  A
N1839      N1849   1.313       .  A
H1840      C1865   1.081       .  S
N1841      N1862   1.315       .  A
N1842      N1860   1.320       .  A
N1842      N1847   1.325       .  A
N1842     Co2591   2.089   1_545  S
C1843      N1847   1.354       .  A
C1843      C1871   1.456       .  S
C1843      C1953   1.472       .  S
N1844      C1859   1.347       .  A
N1844     Co1866   2.103       .  S
C1845      N1873   1.328       .  A
C1845      H1879   1.081       .  S
C1848      N1869   1.354       .  A
C1848      C2133   1.480       .  S
N1849      N1855   1.315       .  A
N1849     Co2589   2.056   1_545  S
N1850      C1876   1.342       .  A
N1850     Co2622   2.090       .  S
N1851      C1865   1.327       .  A
N1852      N1880   1.323       .  A
N1852     Co2626   2.082       .  S
H1853      C1876   1.082       .  S
H1854      C1871   1.082       .  S
N1855     Co2591   2.090   1_545  S
N1856     Co1870   2.065       .  S
N1857      N1869   1.327       .  A
N1857     Co2622   2.084       .  S
C1858      N1862   1.342       .  A
C1858      C1872   1.477       .  S
C1858      C2123   1.486       .  S
C1859      H1863   1.081       .  S
C1859      C1878   1.476       .  S
N1860      C1871   1.337       .  A
N1860     Co2626   2.080       .  S
C1864      C1876   1.464       .  S
C1864      C1963   1.471       .  S
Co1866     N2606   2.085       .  S
Co1866     N2613   2.088       .  S
C1868      C2113   1.488       .  S
Co1870     N2608   2.076       .  S
Co1870     N2616   2.088       .  S
Co1870    Cl1877   2.402       .  S
N1873     Co2589   2.046   1_545  S
C1878      C1983   1.495       .  S
N1881      C1886   1.350       .  A
N1881      C1885   1.357       .  A
N1881      H1913   1.039       .  S
N1882      C1889   1.350       .  A
N1882      C1890   1.347       .  A
N1883      C1888   1.356       .  A
N1883      C1887   1.353       .  A
N1883      H1914   1.041       .  S
N1884      C1891   1.353       .  A
N1884      C1892   1.355       .  A
C1885      C1893   1.384       .  A
C1885      C1901   1.416       .  A
C1886      C1902   1.421       .  A
C1886      C1894   1.391       .  A
C1887      C1895   1.388       .  A
C1887      C1904   1.422       .  A
C1888      C1903   1.423       .  A
C1888      C1896   1.387       .  A
C1889      C1901   1.408       .  A
C1889      C1897   1.384       .  A
C1890      C1904   1.412       .  A
C1890      C1898   1.389       .  A
C1891      C1899   1.386       .  A
C1891      C1902   1.416       .  A
C1892      C1900   1.387       .  A
C1892      C1903   1.421       .  A
C1893      C1894   1.377       .  A
C1893      H1905   1.082       .  S
C1894      H1906   1.082       .  S
C1895      C1896   1.386       .  A
C1895      H1907   1.083       .  S
C1896      H1908   1.082       .  S
C1897      C1898   1.372       .  A
C1897      H1909   1.082       .  S
C1898      H1910   1.082       .  S
C1899      C1900   1.372       .  A
C1899      H1911   1.082       .  S
C1900      H1912   1.082       .  S
C1901      C2090   1.498       .  S
C1902      C2103   1.487       .  S
C1903      C1990   1.513       .  S
C1904      C2003   1.494       .  S
N1915      C1920   1.359       .  A
N1915      C1919   1.352       .  A
N1915      H1947   1.035       .  S
N1916      C1923   1.351       .  A
N1916      C1924   1.355       .  A
N1917      C1922   1.352       .  A
N1917      C1921   1.359       .  A
N1917      H1948   1.044       .  S
N1918      C1925   1.350       .  A
N1918      C1926   1.345       .  A
C1919      C1927   1.391       .  A
C1919      C1935   1.425       .  A
C1920      C1936   1.419       .  A
C1920      C1928   1.385       .  A
C1921      C1929   1.386       .  A
C1921      C1938   1.418       .  A
C1922      C1937   1.418       .  A
C1922      C1930   1.387       .  A
C1923      C1935   1.422       .  A
C1923      C1931   1.389       .  A
C1924      C1938   1.417       .  A
C1924      C1932   1.384       .  A
C1925      C1933   1.383       .  A
C1925      C1936   1.408       .  A
C1926      C1934   1.390       .  A
C1926      C1937   1.413       .  A
C1927      C1928   1.371       .  A
C1927      H1939   1.082       .  S
C1928      H1940   1.082       .  S
C1929      C1930   1.380       .  A
C1929      H1941   1.083       .  S
C1930      H1942   1.082       .  S
C1931      C1932   1.376       .  A
C1931      H1943   1.082       .  S
C1932      H1944   1.082       .  S
C1933      C1934   1.370       .  A
C1933      H1945   1.083       .  S
C1934      H1946   1.081       .  S
C1935      C2073   1.492       .  S
C1936      C2080   1.499       .  S
C1937      C2010   1.516       .  S
C1938      C2023   1.513       .  S
C1949      C1950   1.409       .  A
C1949      C1954   1.408       .  A
C1949     Br1956   1.930       .  S
C1950      C1951   1.411       .  A
C1951      C1952   1.402       .  A
C1951     Br1958   1.935       .  S
C1952      C1953   1.410       .  A
C1952     Br1957   1.931       .  S
C1953      C1954   1.410       .  A
C1954     Br1955   1.930       .  S
C1959      C1960   1.409       .  A
C1959      C1964   1.402       .  A
C1959     Br1966   1.931       .  S
C1960      C1961   1.407       .  A
C1961      C1962   1.408       .  A
C1961     Br1968   1.927       .  S
C1962      C1963   1.410       .  A
C1962     Br1967   1.927       .  S
C1963      C1964   1.410       .  A
C1964     Br1965   1.933       .  S
C1969      C1970   1.408       .  A
C1969      C1974   1.404       .  A
C1969     Br1976   1.930       .  S
C1970      C1971   1.404       .  A
C1971      C1972   1.403       .  A
C1971     Br1978   1.933       .  S
C1972      C1973   1.419       .  A
C1972     Br1977   1.935       .  S
C1973      C1974   1.407       .  A
C1974     Br1975   1.930       .  S
C1979      C1980   1.409       .  A
C1979      C1984   1.411       .  A
C1979     Br1986   1.930       .  S
C1980      C1981   1.403       .  A
C1981      C1982   1.407       .  A
C1981     Br1988   1.933       .  S
C1982      C1983   1.424       .  A
C1982     Br1987   1.936       .  S
C1983      C1984   1.416       .  A
C1984     Br1985   1.928       .  S
C1989      C1990   1.410       .  A
C1989      C1994   1.411       .  A
C1989     Br1996   1.936       .  S
C1990      C1991   1.413       .  A
C1991      C1992   1.421       .  A
C1991     Br1998   1.930       .  S
C1992      C1993   1.421       .  A
C1992     Br1997   1.927   1_554  S
C1993      C1994   1.422       .  A
C1994     Br1995   1.920       .  S
C1999      C2000   1.423   1_655  A
C1999      C2004   1.412       .  A
C1999     Br2006   1.933       .  S
C2000      C2001   1.403   1_455  A
C2001      C2002   1.403       .  A
C2002      C2003   1.415       .  A
C2002     Br2007   1.932       .  S
C2003      C2004   1.410       .  A
C2004     Br2005   1.934       .  S
C2009      C2010   1.414       .  A
C2009      C2014   1.407       .  A
C2009     Br2016   1.924       .  S
C2010      C2011   1.397       .  A
C2011      C2012   1.401       .  A
C2011     Br2018   1.936       .  S
C2012      C2013   1.431       .  A
C2012     Br2017   1.922       .  S
C2013      C2014   1.410       .  A
C2014     Br2015   1.928       .  S
C2019      C2020   1.413       .  A
C2019      C2024   1.424       .  A
C2019     Br2026   1.925       .  S
C2020      C2021   1.407       .  A
C2021      C2022   1.407       .  A
C2022      C2023   1.410       .  A
C2022     Br2027   1.931       .  S
C2023      C2024   1.419       .  A
C2024     Br2025   1.926       .  S
C2029      C2030   1.413       .  A
C2029      C2034   1.409       .  A
C2029     Br2036   1.917       .  S
C2030      C2031   1.407       .  A
C2031      C2032   1.418       .  A
C2031     Br2038   1.916   1_556  S
C2032      C2033   1.409       .  A
C2032     Br2037   1.932       .  S
C2033      C2034   1.414       .  A
C2034     Br2035   1.932       .  S
C2039      C2040   1.633       .  A
C2039      C2044   1.635       .  A
C2039     Br2046   1.913   1_655  S
C2040      C2041   1.630       .  A
C2041      C2042   1.621       .  A
C2041     Br2048   1.925       .  S
C2042      C2043   1.636       .  A
C2042     Br2047   1.930       .  S
C2043      C2044   1.659       .  A
C2044     Br2045   1.921       .  S
C2049      C2050   1.410       .  A
C2049      C2054   1.421       .  A
C2049     Br2056   1.925       .  S
C2050      C2051   1.401       .  A
C2051      C2052   1.404       .  A
C2051     Br2058   1.935       .  S
C2052      C2053   1.422       .  A
C2052     Br2057   1.916       .  S
C2053      C2054   1.422       .  A
C2054     Br2055   1.930       .  S
C2059      C2060   1.407       .  A
C2059      C2064   1.463       .  A
C2059     Br2066   1.921       .  S
C2060      C2061   1.376       .  A
C2061      C2062   1.394       .  A
C2061     Br2068   1.924   1_655  S
C2062      C2063   1.452       .  A
C2062     Br2067   1.937       .  S
C2063      C2064   1.490       .  A
C2064     Br2065   3.693       .  S
C2069      C2070   1.429       .  A
C2069      C2074   1.414       .  A
C2069     Br2076   1.929       .  S
C2070      C2071   1.432       .  A
C2071      C2072   1.407       .  A
C2071     Br2078   1.927       .  S
C2072      C2073   1.401       .  A
C2072     Br2077   1.942       .  S
C2073      C2074   1.404       .  A
C2074     Br2075   1.935       .  S
C2079      C2080   1.414       .  A
C2079      C2084   1.402       .  A
C2079     Br2086   1.926       .  S
C2080      C2081   1.413       .  A
C2081      C2082   1.414       .  A
C2081     Br2088   1.925       .  S
C2082      C2083   1.409       .  A
C2082     Br2087   1.925       .  S
C2083      C2084   1.400       .  A
C2084     Br2085   1.929       .  S
C2089      C2090   1.414       .  A
C2089      C2094   1.414       .  A
C2089     Br2096   1.929       .  S
C2090      C2091   1.407       .  A
C2091      C2092   1.409       .  A
C2091     Br2098   1.931       .  S
C2092      C2093   1.417       .  A
C2093      C2094   1.411       .  A
C2094     Br2095   1.928       .  S
C2099      C2100   1.405       .  A
C2099      C2104   1.406       .  A
C2099     Br2106   1.930       .  S
C2100      C2101   1.409       .  A
C2101      C2102   1.405       .  A
C2101     Br2108   1.928       .  S
C2102      C2103   1.411       .  A
C2102     Br2107   1.931       .  S
C2103      C2104   1.411       .  A
C2104     Br2105   1.928       .  S
C2109      C2110   1.415       .  A
C2109      C2114   1.412       .  A
C2109     Br2116   1.931       .  S
C2110      C2111   1.410       .  A
C2111      C2112   1.401       .  A
C2111     Br2118   1.935       .  S
C2112      C2113   1.418       .  A
C2112     Br2117   1.940       .  S
C2113      C2114   1.412       .  A
C2114     Br2115   1.926       .  S
C2119      C2120   1.411       .  A
C2119      C2124   1.414       .  A
C2119     Br2126   1.931       .  S
C2120      C2121   1.407       .  A
C2121      C2122   1.402       .  A
C2121     Br2128   1.934       .  S
C2122      C2123   1.415       .  A
C2122     Br2127   1.935       .  S
C2123      C2124   1.417       .  A
C2124     Br2125   1.927       .  S
C2129      C2130   1.409       .  A
C2129      C2134   1.410       .  A
C2129     Br2136   1.930       .  S
C2130      C2131   1.409       .  A
C2131      C2132   1.404       .  A
C2131     Br2138   1.933       .  S
C2132      C2133   1.413       .  A
C2133      C2134   1.414       .  A
C2134     Br2135   1.931       .  S
C2139      C2140   1.417       .  A
C2139      C2144   1.399       .  A
C2139     Br2146   1.936       .  S
C2140      C2141   1.416       .  A
C2141      C2142   1.415       .  A
C2141     Br2148   1.926       .  S
C2142      C2143   1.414       .  A
C2142     Br2147   1.930       .  S
C2143      C2144   1.411       .  A
C2144     Br2145   1.937       .  S
C2149      C2150   1.411       .  A
C2149      C2154   1.424       .  A
C2149     Br2156   1.927       .  S
C2150      C2151   1.408       .  A
C2151      C2152   1.416       .  A
C2151     Br2158   1.932       .  S
C2152      C2153   1.432       .  A
C2152     Br2157   1.939       .  S
C2153      C2154   1.425       .  A
C2154     Br2155   1.930       .  S
C2159      C2160   1.422       .  A
C2159      C2164   1.421       .  A
C2159     Br2166   1.930       .  S
C2160      C2161   1.434       .  A
C2161      C2162   1.415       .  A
C2161     Br2168   1.941       .  S
C2162      C2163   1.411       .  A
C2162     Br2167   1.940       .  S
C2163      C2164   1.412       .  A
C2164     Br2165   1.930       .  S
C2169      C2170   1.416       .  A
C2169      C2174   1.413       .  A
C2169     Br2176   1.921       .  S
C2170      C2171   1.416       .  A
C2171      C2172   1.403       .  A
C2171     Br2178   1.939       .  S
C2172      C2173   1.410       .  A
C2172     Br2177   1.918       .  S
C2173      C2174   1.412       .  A
C2174     Br2175   1.931       .  S
C2179      C2180   1.410       .  A
C2179      C2184   1.418       .  A
C2179     Br2186   1.929       .  S
C2180      C2181   1.405       .  A
C2181      C2182   1.396       .  A
C2181     Br2188   1.924       .  S
C2182      C2183   1.421       .  A
C2182     Br2187   1.943       .  S
C2183      C2184   1.423       .  A
C2184     Br2185   1.927       .  S
C2189      C2190   1.412       .  A
C2189      C2194   1.408       .  A
C2189     Br2196   1.931       .  S
C2190      C2191   1.412       .  A
C2191      C2192   1.411       .  A
C2191     Br2198   1.926       .  S
C2192      C2193   1.410       .  A
C2192     Br2197   1.932       .  S
C2193      C2194   1.406       .  A
C2194     Br2195   1.927       .  S
C2199      C2200   1.423       .  A
C2199      C2204   1.407       .  A
C2199     Br2206   1.936       .  S
C2200      C2201   1.427       .  A
C2201      C2202   1.413       .  A
C2201     Br2208   1.924       .  S
C2202      C2203   1.403       .  A
C2202     Br2207   1.929       .  S
C2203      C2204   1.406       .  A
C2204     Br2205   1.930       .  S
C2209      C2210   1.417       .  A
C2209      C2214   1.415       .  A
C2209     Br2216   1.926       .  S
C2210      C2211   1.415       .  A
C2211      C2212   1.409       .  A
C2211     Br2218   1.923       .  S
C2212      C2213   1.411       .  A
C2212     Br2217   1.933       .  S
C2213      C2214   1.410       .  A
C2214     Br2215   1.929       .  S
C2219      C2220   1.399       .  A
C2219      C2224   1.402       .  A
C2219     Br2226   1.917       .  S
C2220      C2221   1.413       .  A
C2221      C2222   1.419       .  A
C2221     Br2228   1.910       .  S
C2222      C2223   1.412       .  A
C2222     Br2227   1.927       .  S
C2223      C2224   1.412       .  A
C2224     Br2225   1.917       .  S
C2229      C2230   1.426       .  A
C2229      C2234   1.416       .  A
C2229     Br2236   1.931       .  S
C2230      C2231   1.430   1_655  A
C2231      C2232   1.412       .  A
C2231     Br2238   1.921       .  S
C2232      C2233   1.400   1_455  A
C2232     Br2237   1.938       .  S
C2233      C2234   1.407       .  A
C2234     Br2235   1.936       .  S
C2239      C2240   1.409       .  A
C2239      C2244   1.406       .  A
C2239     Br2246   1.928       .  S
C2240      C2241   1.412       .  A
C2241      C2242   1.407       .  A
C2241     Br2248   1.930       .  S
C2242      C2243   1.407       .  A
C2242     Br2247   1.929       .  S
C2243      C2244   1.406       .  A
C2249      C2250   1.417       .  A
C2249      C2254   1.419       .  A
C2249     Br2256   1.933       .  S
C2250      C2251   1.419       .  A
C2251      C2252   1.409       .  A
C2251     Br2258   1.938       .  S
C2252      C2253   1.407       .  A
C2252     Br2257   1.908       .  S
C2253      C2254   1.424       .  A
C2254     Br2255   1.933       .  S
C2259      C2260   1.419       .  A
C2259      C2264   1.414       .  A
C2259     Br2266   1.936       .  S
C2260      C2261   1.427       .  A
C2261      C2262   1.415       .  A
C2261     Br2268   1.940       .  S
C2262      C2263   1.419       .  A
C2262     Br2267   1.929       .  S
C2263      C2264   1.420       .  A
C2264     Br2265   1.932       .  S
N2269      C2274   1.352       .  A
N2269      C2273   1.348       .  A
N2269      H2301   1.038       .  S
N2270      C2277   1.356       .  A
N2270      C2278   1.357       .  A
N2271      C2276   1.352       .  A
N2271      C2275   1.347       .  A
N2271      H2302   1.041       .  S
N2272      C2279   1.351       .  A
N2272      C2280   1.349       .  A
C2273      C2281   1.394       .  A
C2273      C2289   1.422       .  A
C2274      C2290   1.410       .  A
C2274      C2282   1.381       .  A
C2275      C2283   1.397       .  A
C2275      C2292   1.429       .  A
C2276      C2291   1.412       .  A
C2276      C2284   1.381       .  A
C2277      C2289   1.423       .  A
C2277      C2285   1.384       .  A
C2278      C2292   1.430       .  A
C2278      C2286   1.389       .  A
C2279      C2287   1.387       .  A
C2279      C2290   1.391       .  A
C2280      C2288   1.384       .  A
C2280      C2291   1.398       .  A
C2281      C2282   1.375       .  A
C2281      H2293   1.081       .  S
C2282      H2294   1.081       .  S
C2283      C2284   1.393       .  A
C2283      H2295   1.082       .  S
C2284      H2296   1.082       .  S
C2285      C2286   1.380       .  A
C2285      H2297   1.082       .  S
C2286      H2298   1.082       .  S
C2287      C2288   1.361       .  A
C2287      H2299   1.082       .  S
C2288      H2300   1.083       .  S
C2289      C2989   1.500       .  S
C2290      C2996   1.480       .  S
C2291      C3016   1.523       .  S
C2292      C3006   1.512       .  S
N2303      C2308   1.356       .  A
N2303      C2307   1.355       .  A
N2303      H2335   1.035       .  S
N2304      C2311   1.350       .  A
N2304      C2312   1.352       .  A
N2305      C2310   1.357       .  A
N2305      C2309   1.360       .  A
N2305      H2336   1.041       .  S
N2306      C2313   1.357       .  A
N2306      C2314   1.354       .  A
C2307      C2315   1.386       .  A
C2307      C2323   1.421       .  A
C2308      C2324   1.425       .  A
C2308      C2316   1.389       .  A
C2309      C2317   1.388       .  A
C2309      C2326   1.428       .  A
C2310      C2325   1.424       .  A
C2310      C2318   1.386       .  A
C2311      C2323   1.415       .  A
C2311      C2319   1.387       .  A
C2312      C2326   1.415       .  A
C2312      C2320   1.387       .  A
C2313      C2321   1.385       .  A
C2313      C2324   1.421       .  A
C2314      C2322   1.389       .  A
C2314      C2325   1.423       .  A
C2315      C2316   1.377       .  A
C2315      H2327   1.082       .  S
C2316      H2328   1.082       .  S
C2317      C2318   1.384       .  A
C2317      H2329   1.082       .  S
C2318      H2330   1.082       .  S
C2319      C2320   1.374       .  A
C2319      H2331   1.082       .  S
C2320      H2332   1.082       .  S
C2321      C2322   1.368       .  A
C2321      H2333   1.082       .  S
C2322      H2334   1.082       .  S
C2323      C2956   1.493       .  S
C2324      C2946   1.506       .  S
C2325      C2969   1.506       .  S
C2326      C2979   1.513       .  S
O2337      C2345   1.259       .  A
O2337     Co2357   1.976       .  S
O2338      C2346   1.271       .  A
O2338     Co2358   1.988       .  S
O2339      C2347   1.313       .  A
O2339     Co2359   2.167       .  S
O2340      C2348   1.276       .  A
O2341      C2347   1.257       .  A
O2341     Co2358   1.863       .  S
O2342      C2348   1.272       .  A
O2342     Co2357   1.986       .  S
O2343      C2346   1.274       .  A
O2343     Co2360   2.025       .  S
O2344      C2345   1.268       .  A
C2345      C3019   1.513       .  S
C2346      C2909   1.524       .  S
C2347      C3009   1.509       .  S
C2348      C2916   1.526       .  S
O2349      C2362   1.266       .  A
O2349     Co2357   1.993       .  S
O2350      C2363   1.297       .  A
O2350     Co2358   2.129       .  S
O2351      C2364   1.276       .  A
O2352      C2365   1.265       .  A
O2352     Co2360   2.003       .  S
O2353      C2365   1.258       .  A
O2353     Co2358   1.971       .  S
O2354      C2364   1.278       .  A
O2354     Co2357   2.039       .  S
O2355      C2362   1.264       .  A
O2356      C2363   1.262       .  A
O2356     Co2359   1.895       .  S
Co2358     O2361   2.005       .  S
Co2359     O2361   2.023       .  S
Co2360     O2361   2.052       .  S
C2362      C2939   1.501       .  S
C2363      C2966   1.502       .  S
C2364      C2976   1.507       .  S
C2365      C2926   1.491       .  S
N2366      C2371   1.364       .  A
N2366      C2370   1.363       .  A
N2366      H2398   1.035       .  S
N2367      C2374   1.353       .  A
N2367      C2375   1.355       .  A
N2368      C2373   1.354       .  A
N2368      C2372   1.357       .  A
N2368      H2399   1.036       .  S
N2369      C2376   1.353       .  A
N2369      C2377   1.354       .  A
C2370      C2378   1.387       .  A
C2370      C2386   1.437       .  A
C2371      C2387   1.437       .  A
C2371      C2379   1.387       .  A
C2372      C2380   1.386       .  A
C2372      C2389   1.417       .  A
C2373      C2388   1.420       .  A
C2373      C2381   1.389       .  A
C2374      C2386   1.423       .  A
C2374      C2382   1.390       .  A
C2375      C2389   1.416       .  A
C2375      C2383   1.384       .  A
C2376      C2384   1.389       .  A
C2376      C2387   1.423       .  A
C2377      C2385   1.385       .  A
C2377      C2388   1.417       .  A
C2378      C2379   1.386       .  A
C2378      H2390   1.082       .  S
C2379      H2391   1.082       .  S
C2380      C2381   1.367       .  A
C2380      H2392   1.082       .  S
C2381      H2393   1.081       .  S
C2382      C2383   1.364       .  A
C2382      H2394   1.081       .  S
C2383      H2395   1.082       .  S
C2384      C2385   1.370       .  A
C2384      H2396   1.082       .  S
C2385      H2397   1.082       .  S
C2386      C2919   1.515       .  S
C2387      C2906   1.513       .  S
C2388      C2886   1.492       .  S
C2389      C2899   1.500       .  S
N2400      C2405   1.350       .  A
N2400      C2404   1.353       .  A
N2400      H2432   1.041       .  S
N2401      C2408   1.348       .  A
N2401      C2409   1.346       .  A
N2402      C2407   1.350       .  A
N2402      C2406   1.352       .  A
N2402      H2433   1.040       .  S
N2403      C2410   1.350       .  A
N2403      C2411   1.352       .  A
C2404      C2412   1.386       .  A
C2404      C2420   1.411       .  A
C2405      C2421   1.413       .  A
C2405      C2413   1.389       .  A
C2406      C2414   1.387       .  A
C2406      C2423   1.416       .  A
C2407      C2422   1.414       .  A
C2407      C2415   1.387       .  A
C2408      C2420   1.407       .  A
C2408      C2416   1.385       .  A
C2409      C2423   1.411       .  A
C2409      C2417   1.385       .  A
C2410      C2418   1.385       .  A
C2410      C2421   1.412       .  A
C2411      C2419   1.387       .  A
C2411      C2422   1.418       .  A
C2412      C2413   1.368       .  A
C2412      H2424   1.082       .  S
C2413      H2425   1.081       .  S
C2414      C2415   1.379       .  A
C2414      H2426   1.082       .  S
C2415      H2427   1.082       .  S
C2416      C2417   1.375       .  A
C2416      H2428   1.082       .  S
C2417      H2429   1.080       .  S
C2418      C2419   1.377       .  A
C2418      H2430   1.082       .  S
C2419      H2431   1.081       .  S
C2420      C2866   1.490       .  S
C2421      C2876   1.483       .  S
C2422      C2936   1.498       .  S
C2423      C2929   1.489       .  S
C2434      C2471   1.478   1_455  S
C2434      C2986   1.516   1_455  S
N2435      N2452   1.326       .  A
N2435      N2457   1.317       .  A
N2435     Co2472   2.096       .  S
C2436      N2461   1.339       .  A
C2436      H2481   1.078       .  S
H2437      C2478   1.081       .  S
C2438      N2462   1.355       .  A
C2438      H2467   1.081       .  S
C2438      C2442   1.485       .  S
N2440      C2478   1.337       .  A
N2440      N2447   1.320       .  A
N2440     Co2441   2.092       .  S
Co2441     N2444   2.062       .  S
Co2441     N2461   2.065       .  S
Co2441     N2448   2.125       .  S
Co2441    Cl2483   2.464   1_565  S
C2442      N2480   1.341       .  A
C2442      C2959   1.499       .  S
N2443      N2450   1.322       .  A
N2443      N2473   1.331       .  A
N2443     Co2476   2.101       .  S
N2444      N2462   1.322       .  A
N2444      N2480   1.317       .  A
N2445      C2474   1.350       .  A
H2446      C2471   1.079       .  S
N2448      N2466   1.317       .  A
N2448      N2453   1.335       .  A
C2449      N2453   1.365       .  A
C2449      C2477   1.454       .  S
C2449      C2839   1.507       .  S
N2450      C2465   1.334       .  A
N2450     Co2472   2.092       .  S
C2451      H2485   1.073       .  S
C2451      C2454   1.447       .  S
C2454      C2849   1.482       .  S
N2455      N2461   1.318       .  A
N2456      C2482   1.339       .  A
N2456      N2458   1.320       .  A
N2456     Co2472   2.074       .  S
N2458      N2486   1.321       .  A
N2458     Co2476   2.092       .  S
H2459      C2482   1.081       .  S
H2460      C2477   1.081       .  S
N2463      N2475   1.336       .  A
N2463      N2479   1.318       .  A
N2463     Co2472   2.115       .  S
C2464      N2468   1.346       .  A
C2464      C2999   1.467       .  S
C2465      H2469   1.077       .  S
C2465      C2484   1.455       .  S
N2466      C2477   1.333       .  A
C2470      N2486   1.350       .  A
C2470      C2482   1.464       .  S
C2470      C2856   1.486       .  S
N2473      C2484   1.357       .  A
C2474      C2826   1.503       .  S
C2484      C2949   1.483       .  S
O2488      C2496   1.268       .  A
O2488     Co2508   1.900   1_554  S
O2489      C2497   1.274       .  A
O2489     Co2509   2.028       .  S
O2490     Co2510   2.026       .  S
O2491      C2497   1.268       .  A
O2491     Co2508   1.981       .  S
O2492      C2498   1.246       .  A
O2493      C2496   1.304       .  A
O2493     Co2510   2.155       .  S
O2494      C2495   1.261       .  A
O2494     Co2509   1.988       .  S
C2496      C2749   1.523       .  S
C2497      C2809   1.521       .  S
C2498      C2756   1.488       .  S
O2500      C2513   1.276       .  A
O2500     Co2508   2.020       .  S
O2501      C2514   1.272       .  A
O2501     Co2509   1.986       .  S
O2502      C2515   1.269       .  A
O2502     Co2510   1.889       .  S
O2503      C2515   1.291       .  A
O2503     Co2508   2.115   1_554  S
O2505      C2512   1.273       .  A
O2505     Co2510   2.000       .  S
O2506      C2513   1.261       .  A
O2506     Co2509   1.972       .  S
Co2507     O2511   2.044   1_554  S
Co2508     O2511   2.014       .  S
Co2509     O2511   2.060       .  S
Co2510     O2511   2.038   1_554  S
C2513      C2786   1.476       .  S
C2515      C2769   1.491       .  S
N2516      C2521   1.356       .  A
N2516      C2520   1.360       .  A
N2516      H2548   1.045       .  S
N2517      C2524   1.341       .  A
N2517      C2525   1.344       .  A
N2518      C2523   1.340       .  A
N2518      C2522   1.348       .  A
N2518      H2549   1.044       .  S
N2519      C2526   1.357       .  A
N2519      C2527   1.357       .  A
C2520      C2528   1.384       .  A
C2520      C2536   1.409       .  A
C2521      C2537   1.409       .  A
C2521      C2529   1.375       .  A
C2522      C2530   1.383       .  A
C2522      C2539   1.396       .  A
C2523      C2538   1.396       .  A
C2523      C2531   1.387       .  A
C2524      C2536   1.399       .  A
C2524      C2532   1.390       .  A
C2525      C2539   1.394       .  A
C2525      C2533   1.382       .  A
C2526      C2534   1.375       .  A
C2526      C2537   1.414       .  A
C2527      C2535   1.379       .  A
C2527      C2538   1.408       .  A
C2528      C2529   1.377       .  A
C2528      H2540   1.078       .  S
C2529      H2541   1.069       .  S
C2530      C2531   1.371       .  A
C2530      H2542   1.082       .  S
C2531      H2543   1.078       .  S
C2532      C2533   1.373       .  A
C2532      H2544   1.082       .  S
C2533      H2545   1.082       .  S
C2534      C2535   1.370       .  A
C2534      H2546   1.066       .  S
C2535      H2547   1.083       .  S
C2536      C2736   1.489       .  S
C2537      C2799   1.560       .  S
C2538      C2789   1.511       .  S
C2539      C2726   1.471       .  S
N2550      C2555   1.350       .  A
N2550      C2554   1.353       .  A
N2550      H2582   1.036       .  S
N2551      C2558   1.354       .  A
N2551      C2559   1.350       .  A
N2552      C2557   1.365       .  A
N2552      C2556   1.363       .  A
N2552      H2583   1.037       .  S
N2553      C2560   1.353       .  A
N2553      C2561   1.354       .  A
C2554      C2562   1.388       .  A
C2554      C2570   1.414       .  A
C2555      C2571   1.409       .  A
C2555      C2563   1.386       .  A
C2556      C2564   1.385       .  A
C2556      C2573   1.430       .  A
C2557      C2572   1.439       .  A
C2557      C2565   1.389       .  A
C2558      C2570   1.417       .  A
C2558      C2566   1.386       .  A
C2559      C2573   1.417       .  A
C2559      C2567   1.387       .  A
C2560      C2568   1.380       .  A
C2560      C2571   1.412       .  A
C2561      C2569   1.393       .  A
C2561      C2572   1.434       .  A
C2562      C2563   1.371       .  A
C2562      H2574   1.082       .  S
C2563      H2575   1.082       .  S
C2564      C2565   1.384       .  A
C2564      H2576   1.082       .  S
C2565      H2577   1.081       .  S
C2566      C2567   1.372       .  A
C2566      H2578   1.082       .  S
C2567      H2579   1.082       .  S
C2568      C2569   1.370       .  A
C2568      H2580   1.082       .  S
C2569      H2581   1.082       .  S
C2570      C2706   1.491       .  S
C2571      C2716   1.484       .  S
C2572      C2819   1.518       .  S
C2573      C2806   1.510       .  S
C2584      N2602   1.364       .  A
C2584      C2896   1.498       .  S
N2585      N2602   1.334       .  A
N2585     Co2622   2.116   1_565  S
C2586      N2611   1.346       .  A
C2586      H2631   1.080       .  S
C2586      C2624   1.476       .  S
H2587      C2628   1.081       .  S
C2588      N2612   1.336       .  A
C2588      H2617   1.082       .  S
C2588      C2592   1.459       .  S
Co2589     N2607   2.053       .  S
Co2589     N2597   2.049       .  S
Co2589    Cl2633   2.375   1_565  S
N2590      C2628   1.350       .  A
N2590      N2597   1.316       .  A
N2590     Co2591   2.093       .  S
Co2591     N2594   2.075       .  S
Co2591    Cl2633   2.494   1_565  S
C2592      N2630   1.350       .  A
C2592      C2729   1.472       .  S
N2593      N2623   1.321       .  A
N2593     Co2626   2.076   1_565  S
N2594      N2612   1.318       .  A
N2594      N2630   1.321       .  A
N2595      C2624   1.343       .  A
N2595      N2605   1.315       .  A
H2596      C2621   1.079       .  S
N2597      N2618   1.313       .  A
N2598      N2616   1.319       .  A
N2598      N2603   1.324       .  A
C2599      N2603   1.352       .  A
C2599      C2627   1.462       .  S
C2599      C2709   1.478       .  S
N2600      C2615   1.347       .  A
N2600     Co2622   2.109   1_565  S
C2601      N2629   1.332       .  A
C2601      H2635   1.081       .  S
C2604      N2625   1.356       .  A
C2604      C2889   1.481       .  S
N2605      N2611   1.314       .  A
N2606      C2632   1.340       .  A
N2607      C2621   1.323       .  A
N2608      N2636   1.322       .  A
H2609      C2632   1.082       .  S
H2610      C2627   1.082       .  S
N2612     Co2626   2.073   1_565  S
N2613      N2625   1.328       .  A
C2614      N2618   1.339       .  A
C2614      C2628   1.477       .  S
C2614      C2879   1.480       .  S
C2615      H2619   1.081       .  S
C2615      C2634   1.477       .  S
N2616      C2627   1.338       .  A
C2620      C2632   1.465       .  S
C2620      C2719   1.472       .  S
C2624      C2869   1.493       .  S
Co2626    Cl2633   2.394       .  S
C2634      C2739   1.497       .  S
N2637      C2642   1.345       .  A
N2637      C2641   1.357       .  A
N2637      H2669   1.039       .  S
N2638      C2645   1.351       .  A
N2638      C2646   1.343       .  A
N2639      C2644   1.359       .  A
N2639      C2643   1.352       .  A
N2639      H2670   1.042       .  S
N2640      C2647   1.350       .  A
N2640      C2648   1.354       .  A
C2641      C2649   1.385       .  A
C2641      C2657   1.417       .  A
C2642      C2658   1.414       .  A
C2642      C2650   1.390       .  A
C2643      C2651   1.389       .  A
C2643      C2660   1.423       .  A
C2644      C2659   1.422       .  A
C2644      C2652   1.386       .  A
C2645      C2657   1.409       .  A
C2645      C2653   1.384       .  A
C2646      C2660   1.409       .  A
C2646      C2654   1.390       .  A
C2647      C2655   1.387       .  A
C2647      C2658   1.413       .  A
C2648      C2656   1.386       .  A
C2648      C2659   1.418       .  A
C2649      C2650   1.377       .  A
C2649      H2661   1.082       .  S
C2650      H2662   1.082       .  S
C2651      C2652   1.386       .  A
C2651      H2663   1.082       .  S
C2652      H2664   1.082       .  S
C2653      C2654   1.371       .  A
C2653      H2665   1.081       .  S
C2654      H2666   1.082       .  S
C2655      C2656   1.375       .  A
C2655      H2667   1.082       .  S
C2656      H2668   1.082       .  S
C2657      C2846   1.500       .  S
C2658      C2859   1.476       .  S
C2659      C2746   1.515       .  S
C2660      C2759   1.488       .  S
N2671      C2676   1.353       .  A
N2671      C2675   1.350       .  A
N2671      H2703   1.039       .  S
N2672      C2679   1.349       .  A
N2672      C2680   1.351       .  A
N2673      C2678   1.352       .  A
N2673      C2677   1.361       .  A
N2673      H2704   1.044       .  S
N2674      C2681   1.351       .  A
N2674      C2682   1.348       .  A
C2675      C2683   1.391       .  A
C2675      C2691   1.420       .  A
C2676      C2692   1.408       .  A
C2676      C2684   1.381       .  A
C2677      C2685   1.385       .  A
C2677      C2694   1.421       .  A
C2678      C2693   1.422       .  A
C2678      C2686   1.389       .  A
C2679      C2691   1.418       .  A
C2679      C2687   1.388       .  A
C2680      C2694   1.413       .  A
C2680      C2688   1.385       .  A
C2681      C2689   1.379       .  A
C2681      C2692   1.406       .  A
C2682      C2690   1.391       .  A
C2682      C2693   1.418       .  A
C2683      C2684   1.377       .  A
C2683      H2695   1.082       .  S
C2684      H2696   1.082       .  S
C2685      C2686   1.384       .  A
C2685      H2697   1.082       .  S
C2686      H2698   1.083       .  S
C2687      C2688   1.381       .  A
C2687      H2699   1.082       .  S
C2688      H2700   1.082       .  S
C2689      C2690   1.372       .  A
C2689      H2701   1.082       .  S
C2690      H2702   1.081       .  S
C2691      C2829   1.495       .  S
C2692      C2836   1.496       .  S
C2693      C2766   1.523       .  S
C2694      C2779   1.514       .  S
C2705      C2706   1.409       .  A
C2705      C2710   1.407       .  A
C2705     Br2712   1.930       .  S
C2706      C2707   1.409       .  A
C2707      C2708   1.407       .  A
C2707     Br2714   1.931       .  S
C2708      C2709   1.415       .  A
C2708     Br2713   1.934       .  S
C2709      C2710   1.410       .  A
C2710     Br2711   1.929       .  S
C2715      C2716   1.409       .  A
C2715      C2720   1.400       .  A
C2715     Br2722   1.935       .  S
C2716      C2717   1.409       .  A
C2717      C2718   1.411       .  A
C2717     Br2724   1.928       .  S
C2718      C2719   1.411       .  A
C2718     Br2723   1.928       .  S
C2719      C2720   1.410       .  A
C2720     Br2721   1.934       .  S
C2725      C2726   1.406       .  A
C2725      C2730   1.403       .  A
C2725     Br2732   1.931       .  S
C2726      C2727   1.403       .  A
C2727      C2728   1.401       .  A
C2727     Br2734   1.935       .  S
C2728      C2729   1.421       .  A
C2728     Br2733   1.936       .  S
C2729      C2730   1.410       .  A
C2730     Br2731   1.931       .  S
C2735      C2736   1.414       .  A
C2735      C2740   1.410       .  A
C2735     Br2742   1.929       .  S
C2736      C2737   1.407       .  A
C2737      C2738   1.411       .  A
C2737     Br2744   1.935       .  S
C2738      C2739   1.423       .  A
C2738     Br2743   1.934       .  S
C2739      C2740   1.413       .  A
C2740     Br2741   1.931       .  S
C2745      C2746   1.408       .  A
C2745      C2750   1.412       .  A
C2745     Br2752   1.936       .  S
C2746      C2747   1.413       .  A
C2747      C2748   1.424       .  A
C2747     Br2754   1.929       .  S
C2748      C2749   1.423       .  A
C2748     Br2753   1.926   1_554  S
C2749      C2750   1.423       .  A
C2750     Br2751   1.917       .  S
C2755      C2756   1.423   1_655  A
C2755      C2760   1.407       .  A
C2755     Br2762   1.933       .  S
C2756      C2757   1.403       .  A
C2757      C2758   1.402   1_455  A
C2758      C2759   1.418       .  A
C2758     Br2763   1.933       .  S
C2759      C2760   1.407       .  A
C2760     Br2761   1.936       .  S
C2765      C2766   1.420       .  A
C2765      C2770   1.414       .  A
C2765     Br2772   1.933       .  S
C2766      C2767   1.400       .  A
C2767      C2768   1.397       .  A
C2767     Br2774   1.934       .  S
C2768      C2769   1.425       .  A
C2768     Br2773   1.921       .  S
C2769      C2770   1.413       .  A
C2770     Br2771   1.929       .  S
C2775      C2776   1.412       .  A
C2775      C2780   1.425       .  A
C2775     Br2782   1.924       .  S
C2776      C2777   1.407       .  A
C2777      C2778   1.408       .  A
C2778      C2779   1.411       .  A
C2778     Br2783   1.928       .  S
C2779      C2780   1.418       .  A
C2780     Br2781   1.925       .  S
C2785      C2786   1.406       .  A
C2785      C2790   1.404       .  A
C2785     Br2792   1.919       .  S
C2786      C2787   1.396       .  A
C2787      C2788   1.404       .  A
C2787     Br2794   1.912       .  S
C2788      C2789   1.416       .  A
C2788     Br2793   1.928       .  S
C2789      C2790   1.419       .  A
C2790     Br2791   1.932       .  S
C2795      C2796   1.621       .  A
C2795      C2800   1.631       .  A
C2795     Br2802   1.920   1_655  S
C2796      C2797   1.615       .  A
C2797      C2798   1.623       .  A
C2797     Br2804   1.934       .  S
C2798      C2799   1.671       .  A
C2798     Br2803   1.922       .  S
C2799      C2800   1.675       .  A
C2800     Br2801   1.927       .  S
C2805      C2806   1.411       .  A
C2805      C2810   1.422       .  A
C2805     Br2812   1.927       .  S
C2806      C2807   1.410       .  A
C2807      C2808   1.414       .  A
C2807     Br2814   1.940       .  S
C2808      C2809   1.428       .  A
C2808     Br2813   1.932       .  S
C2809      C2810   1.422       .  A
C2810     Br2811   1.931       .  S
C2815      C2816   1.406       .  A
C2815      C2820   1.461       .  A
C2815     Br2822   1.921       .  S
C2816      C2817   1.382       .  A
C2817      C2818   1.407       .  A
C2817     Br2824   1.922   1_655  S
C2818      C2819   1.453       .  A
C2818     Br2823   1.939       .  S
C2819      C2820   1.501       .  A
C2820     Br2821   3.685       .  S
C2825      C2826   1.426       .  A
C2825      C2830   1.414       .  A
C2825     Br2832   1.929   1_655  S
C2826      C2827   1.423       .  A
C2827      C2828   1.402       .  A
C2827     Br2834   1.939       .  S
C2828      C2829   1.408       .  A
C2828     Br2833   1.939       .  S
C2829      C2830   1.410       .  A
C2830     Br2831   1.934       .  S
C2835      C2836   1.406       .  A
C2835      C2840   1.406       .  A
C2835     Br2842   1.942       .  S
C2836      C2837   1.409       .  A
C2837      C2838   1.420       .  A
C2837     Br2844   1.927       .  S
C2838      C2839   1.420       .  A
C2838     Br2843   1.927       .  S
C2839      C2840   1.423       .  A
C2840     Br2841   1.925       .  S
C2845      C2846   1.415       .  A
C2845      C2850   1.412       .  A
C2845     Br2852   1.929       .  S
C2846      C2847   1.411       .  A
C2847      C2848   1.409       .  A
C2847     Br2854   1.929       .  S
C2848      C2849   1.411       .  A
C2849      C2850   1.407       .  A
C2850     Br2851   1.928       .  S
C2855      C2856   1.418       .  A
C2855      C2860   1.400       .  A
C2855     Br2862   1.922       .  S
C2856      C2857   1.421       .  A
C2857      C2858   1.408       .  A
C2857     Br2864   1.932       .  S
C2858      C2859   1.404       .  A
C2858     Br2863   1.932       .  S
C2859      C2860   1.400       .  A
C2860     Br2861   1.937       .  S
C2865      C2866   1.410       .  A
C2865      C2870   1.410       .  A
C2865     Br2872   1.933       .  S
C2866      C2867   1.406       .  A
C2867      C2868   1.401       .  A
C2867     Br2874   1.939       .  S
C2868      C2869   1.425       .  A
C2868     Br2873   1.940       .  S
C2869      C2870   1.419       .  A
C2870     Br2871   1.930       .  S
C2875      C2876   1.410       .  A
C2875      C2880   1.411       .  A
C2875     Br2882   1.931       .  S
C2876      C2877   1.405       .  A
C2877      C2878   1.399       .  A
C2877     Br2884   1.936       .  S
C2878      C2879   1.416       .  A
C2878     Br2883   1.935       .  S
C2879      C2880   1.415       .  A
C2880     Br2881   1.927       .  S
C2885      C2886   1.410       .  A
C2885      C2890   1.411       .  A
C2885     Br2892   1.930       .  S
C2886      C2887   1.407       .  A
C2887      C2888   1.403       .  A
C2887     Br2894   1.932   1_655  S
C2888      C2889   1.414       .  A
C2889      C2890   1.415       .  A
C2890     Br2891   1.931       .  S
C2895      C2896   1.421       .  A
C2895      C2900   1.400       .  A
C2895     Br2902   1.937       .  S
C2896      C2897   1.415       .  A
C2897      C2898   1.416       .  A
C2897     Br2904   1.926       .  S
C2898      C2899   1.413       .  A
C2898     Br2903   1.928       .  S
C2899      C2900   1.408       .  A
C2900     Br2901   1.936       .  S
C2905      C2906   1.412       .  A
C2905      C2910   1.424       .  A
C2905     Br2912   1.928       .  S
C2906      C2907   1.407       .  A
C2907      C2908   1.414       .  A
C2907     Br2914   1.935       .  S
C2908      C2909   1.430       .  A
C2908     Br2913   1.938       .  S
C2909      C2910   1.425       .  A
C2910     Br2911   1.933       .  S
C2915      C2916   1.422       .  A
C2915      C2920   1.421       .  A
C2915     Br2922   1.930       .  S
C2916      C2917   1.430       .  A
C2917      C2918   1.418       .  A
C2917     Br2924   1.935       .  S
C2918      C2919   1.412       .  A
C2918     Br2923   1.938       .  S
C2919      C2920   1.412       .  A
C2920     Br2921   1.931       .  S
C2925      C2926   1.417       .  A
C2925      C2930   1.413       .  A
C2925     Br2932   1.924       .  S
C2926      C2927   1.414       .  A
C2927      C2928   1.394       .  A
C2927     Br2934   1.937       .  S
C2928      C2929   1.403       .  A
C2928     Br2933   1.918       .  S
C2929      C2930   1.411       .  A
C2930     Br2931   1.928       .  S
C2935      C2936   1.411       .  A
C2935      C2940   1.416       .  A
C2935     Br2942   1.931       .  S
C2936      C2937   1.411       .  A
C2937      C2938   1.397       .  A
C2937     Br2944   1.920       .  S
C2938      C2939   1.414       .  A
C2938     Br2943   1.941       .  S
C2939      C2940   1.421       .  A
C2940     Br2941   1.922       .  S
C2945      C2946   1.416       .  A
C2945      C2950   1.413       .  A
C2945     Br2952   1.930       .  S
C2946      C2947   1.415       .  A
C2947      C2948   1.410       .  A
C2947     Br2954   1.930       .  S
C2948      C2949   1.409       .  A
C2948     Br2953   1.932       .  S
C2949      C2950   1.408       .  A
C2950     Br2951   1.927       .  S
C2955      C2956   1.412       .  A
C2955      C2960   1.416       .  A
C2955     Br2962   1.928       .  S
C2956      C2957   1.400       .  A
C2957      C2958   1.404       .  A
C2957     Br2964   1.937       .  S
C2958      C2959   1.421       .  A
C2958     Br2963   1.912       .  S
C2959      C2960   1.414       .  A
C2960     Br2961   1.926       .  S
C2965      C2966   1.416       .  A
C2965      C2970   1.419       .  A
C2965     Br2972   1.929       .  S
C2966      C2967   1.417       .  A
C2967      C2968   1.408       .  A
C2967     Br2974   1.925       .  S
C2968      C2969   1.409       .  A
C2968     Br2973   1.934       .  S
C2969      C2970   1.413       .  A
C2970     Br2971   1.927       .  S
C2975      C2976   1.410       .  A
C2975      C2980   1.416       .  A
C2975     Br2982   1.917       .  S
C2976      C2977   1.411       .  A
C2977      C2978   1.417       .  A
C2977     Br2984   1.909       .  S
C2978      C2979   1.412       .  A
C2978     Br2983   1.929       .  S
C2979      C2980   1.418       .  A
C2980     Br2981   1.932       .  S
C2985      C2986   1.423       .  A
C2985      C2990   1.414       .  A
C2985     Br2992   1.933       .  S
C2986      C2987   1.429   1_655  A
C2987      C2988   1.414       .  A
C2987     Br2994   1.925       .  S
C2988      C2989   1.407   1_455  A
C2988     Br2993   1.942       .  S
C2989      C2990   1.408       .  A
C2990     Br2991   1.934       .  S
C2995      C2996   1.410       .  A
C2995      C3000   1.404       .  A
C2995     Br3002   1.927       .  S
C2996      C2997   1.413       .  A
C2997      C2998   1.405       .  A
C2997     Br3004   1.931       .  S
C2998      C2999   1.406       .  A
C2998     Br3003   1.928       .  S
C2999      C3000   1.403       .  A
C3005      C3006   1.416       .  A
C3005      C3010   1.415       .  A
C3005     Br3012   1.936       .  S
C3006      C3007   1.418       .  A
C3007      C3008   1.408       .  A
C3007     Br3014   1.933       .  S
C3008      C3009   1.406       .  A
C3008     Br3013   1.914       .  S
C3009      C3010   1.426       .  A
C3010     Br3011   1.935       .  S
C3015      C3016   1.425       .  A
C3015      C3020   1.421       .  A
C3015     Br3022   1.935       .  S
C3016      C3017   1.428       .  A
C3017      C3018   1.406       .  A
C3017     Br3024   1.937       .  S
C3018      C3019   1.408       .  A
C3018     Br3023   1.924       .  S
C3019      C3020   1.421       .  A
C3020     Br3021   1.933       .  S
