geometry optimzed in LAMMPS
_audit_creation_date              2020-11-30 
_audit_creation_method            'lammps2cif' 
_symmetry_space_group_name_H-M    'P1' 
_symmetry_Int_Tables_number       1 
_symmetry_cell_setting            triclinic 
loop_ 
_symmetry_equiv_pos_as_xyz 
  x,y,z 
_cell_length_a                    51.97491485 
_cell_length_b                    52.24294383953552 
_cell_length_c                    26.63551543121368 
_cell_angle_alpha                 91.4157228814412 
_cell_angle_beta                  90.05972790354183 
_cell_angle_gamma                 119.80221191696157 
loop_ 
_atom_site_label 
_atom_site_type_symbol 
_atom_site_fract_x 
_atom_site_fract_y 
_atom_site_fract_z 
_atom_site_charge 
O1          O  0.31213411  0.25268174  0.03167895    -0.78400
C2          C  0.25378295  0.25377712  0.14706810     0.82600
O3          O  0.21642740  0.17952773  0.97276132    -0.79600
O4          O  0.18972271  0.25283753  0.03890516    -0.81000
O5          O  0.28598084  0.32366308  0.97557207    -0.80800
O6          O  0.32183421  0.28438898  0.97047011    -0.79500
Zn7        Zn  0.26884051  0.23473818  0.04748031     1.55700
O8          O  0.25424472  0.31611153  0.03732720    -0.80900
Cd9        Cd  0.28123666  0.28223553  0.96147800     1.59700
Cd10       Cd  0.21814624  0.22000710  0.96316498     1.59600
O11         O  0.26880024  0.27156997  0.88684857    -0.80900
O12         O  0.25086166  0.25183609  0.00601421    -1.91400
Cd13       Cd  0.23488880  0.27156106  0.05116063     1.59900
O14         O  0.22523814  0.22989358  0.88737611    -0.80800
O15         O  0.24223570  0.26741621  0.12617104    -0.79500
C16         C  0.23093977  0.17244513  0.00268058     0.83100
C17         C  0.32990270  0.27093563  0.00033191     0.82700
O18         O  0.26448458  0.24042016  0.12157417    -0.78400
C19         C  0.27340660  0.33298824  0.00614109     0.83500
O20         O  0.25045237  0.19113578  0.03323030    -0.78500
C21         C  0.24626982  0.25080987  0.86390931     0.83700
C22         C  0.17059314  0.23185226  0.01078083     0.84000
O23         O  0.17770317  0.21696541  0.98086036    -0.80900
O24         O  0.30904796  0.25213489  0.53953100    -0.78400
C25         C  0.24565751  0.25149586  0.64667806     0.82600
O26         O  0.21849736  0.17907645  0.46817524    -0.79600
O27         O  0.18278323  0.24368190  0.52912247    -0.81000
O28         O  0.28153050  0.32287957  0.47989577    -0.80800
O29         O  0.32352229  0.28766256  0.48474833    -0.79500
Zn30       Zn  0.26553422  0.23438443  0.55018361     1.55700
O31         O  0.24298201  0.30907006  0.53079757    -0.80900
Cd32       Cd  0.28193694  0.28337151  0.46733791     1.59700
Cd33       Cd  0.21915655  0.21877509  0.45732232     1.59600
O34         O  0.27441631  0.27382104  0.39072431    -0.80900
O35         O  0.24870239  0.25042438  0.50508530    -1.91400
Cd36       Cd  0.22733905  0.26566167  0.54684982     1.59900
O37         O  0.23198985  0.23096607  0.38407116    -0.80800
O38         O  0.23177930  0.26205623  0.62338042    -0.79500
C39         C  0.23233971  0.17297528  0.50105855     0.83100
C40         C  0.32940876  0.27218225  0.51408551     0.82700
O41         O  0.25922523  0.24033071  0.62322364    -0.78400
C42         C  0.26348191  0.32830397  0.50412519     0.83500
O43         O  0.24892402  0.19173705  0.53455334    -0.78500
C44         C  0.25393130  0.25296394  0.36418595     0.83700
C45         C  0.16614869  0.22426319  0.49631266     0.84000
O46         O  0.17628391  0.21244486  0.46554852    -0.80900
O47         O  0.05907460  0.24608542  0.97003199    -0.78400
C48         C  0.00082605  0.25021648  0.85812361     0.82600
O49         O  0.03907008  0.32286830  0.03202753    -0.79600
O50         O  0.43859123  0.25061140  0.96753273    -0.81000
O51         O  0.46133253  0.17740703  0.02831757    -0.80800
O52         O  0.03730572  0.21553952  0.03285870    -0.79500
Zn53       Zn  0.03522228  0.26612828  0.95760930     1.55700
O54         O  0.43855791  0.18735821  0.96755762    -0.80900
Cd55       Cd  0.99920414  0.21855301  0.04262203     1.59700
Cd56       Cd  0.00035198  0.28247001  0.04163398     1.59600
O57         O  0.49901407  0.23010723  0.11732906    -0.80900
O58         O  0.00034639  0.24999034  0.99916628    -1.91400
Cd59       Cd  0.46466271  0.23174266  0.95459025     1.59900
O60         O  0.49997733  0.27320842  0.11690324    -0.80800
O61         O  0.47607537  0.23686807  0.88013463    -0.79500
C62         C  0.06183115  0.32832205  0.00626994     0.83100
C63         C  0.05834575  0.22789116  0.00172892     0.82700
O64         O  0.02513393  0.26274719  0.88326397    -0.78400
C65         C  0.43958740  0.16926371  0.99763400     0.83500
O66         O  0.06226286  0.30867595  0.97751662    -0.78500
C67         C  0.49949282  0.25203168  0.14042048     0.83700
C68         C  0.44025200  0.27072783  0.99759435     0.84000
O69         O  0.46239566  0.28532879  0.02736930    -0.80900
O70         O  0.48014375  0.23963932  0.61603013    -0.78400
C71         C  0.44136750  0.27213074  0.50619280     0.82600
O72         O  0.45741224  0.17750458  0.46314942    -0.79600
O73         O  0.99850474  0.27097338  0.38256673    -0.81000
O74         O  0.06381816  0.30989632  0.52083933    -0.80800
O75         O  0.02912965  0.26511969  0.61580063    -0.79500
Zn76       Zn  0.46730732  0.23431425  0.54362218     1.55700
O77         O  0.03826474  0.32213794  0.46890843    -0.80900
Cd78       Cd  0.03671527  0.26689949  0.53944349     1.59700
Cd79       Cd  0.49757304  0.21681886  0.45363077     1.59600
O80         O  0.05953265  0.24485925  0.52480902    -0.80900
O81         O  0.49981882  0.24975730  0.49825178    -1.91400
Cd82       Cd  0.49910026  0.28168909  0.45807076     1.59900
O83         O  0.03365717  0.21015128  0.46613483    -0.80800
O84         O  0.46155706  0.28567574  0.47400566    -0.79500
C85         C  0.43748384  0.17221780  0.49571444     0.83100
C86         C  0.50492740  0.25253210  0.63957442     0.82700
O87         O  0.44235928  0.25324685  0.53426788    -0.78400
C88         C  0.06201063  0.32844612  0.49309311     0.83500
O89         O  0.44052574  0.19172087  0.52828503    -0.78500
C90         C  0.05603934  0.22357069  0.49586443     0.83700
C91         C  0.99962813  0.25025646  0.35800031     0.84000
O92         O  0.99942033  0.22870089  0.37977238    -0.80900
O93         O  0.30840307  0.05841739  0.97090563    -0.78400
C94         C  0.24322850  0.99585847  0.86369502     0.82600
O95         O  0.21537576  0.04052353  0.03609099    -0.79600
O96         O  0.19218513  0.43731686  0.98000224    -0.81000
O97         O  0.28853794  0.46558362  0.03524078    -0.80800
O98         O  0.32244392  0.03867313  0.03019832    -0.79500
Zn99       Zn  0.26454505  0.03357431  0.96045630     1.55700
O100        O  0.25683630  0.44201336  0.97181882    -0.80900
Cd101      Cd  0.28145390  0.00142814  0.04545113     1.59700
Cd102      Cd  0.21768273  0.00216280  0.04874378     1.59600
O103        O  0.27260318  0.00254154  0.12121490    -0.80900
O104        O  0.24830115  0.00052225  0.00452230    -1.91400
Cd105      Cd  0.23514596  0.46529317  0.96038520     1.59900
O106        O  0.23012822  0.00337666  0.12302633    -0.80800
O107        O  0.23622630  0.47388943  0.88494792    -0.79500
C108        C  0.22950205  0.06119165  0.00534373     0.83100
C109        C  0.32857023  0.05882401  0.99852199     0.82700
O110        O  0.25637383  0.02057816  0.88766592    -0.78400
C111        C  0.27593076  0.44386428  0.00386459     0.83500
O112        O  0.24794510  0.06025290  0.97501878    -0.78500
C113        C  0.25419550  0.50526607  0.14469691     0.83700
C114        C  0.17355182  0.43798295  0.01017201     0.84000
O115        O  0.17950390  0.46111432  0.03651640    -0.80900
O116        O  0.24782030  0.44104640  0.53077134    -0.78400
C117        C  0.24752464  0.50137940  0.64540845     0.82600
O118        O  0.17579551  0.46327015  0.46819574    -0.79600
O119        O  0.24852928  0.06145338  0.53628811    -0.81000
O120        O  0.32022442  0.03831249  0.47269892    -0.80800
O121        O  0.28311383  0.46179946  0.47363235    -0.79500
Zn122      Zn  0.23075870  0.46688276  0.54570546     1.55700
O123        O  0.30957752  0.06011434  0.53558844    -0.80900
Cd124      Cd  0.28114486  0.50032649  0.46157246     1.59700
Cd125      Cd  0.21716204  0.50135015  0.46027067     1.59600
O126        O  0.26867037  0.99748469  0.38671862    -0.80900
O127        O  0.24872719  0.50046906  0.50342812    -1.91400
Cd128      Cd  0.26559083  0.03455057  0.55010092     1.59900
O129        O  0.22855900  0.00259910  0.38625126    -0.80800
O130        O  0.25986636  0.02414704  0.62466690    -0.79500
C131        C  0.16943678  0.44143917  0.49605797     0.83100
C132        C  0.26704935  0.44044207  0.50205730     0.82700
O133        O  0.23500645  0.47701579  0.62031000    -0.78400
C134        C  0.32760723  0.06014523  0.50325957     0.83500
O135        O  0.18825962  0.44160849  0.52680913    -0.78500
C136        C  0.24855924  0.99984967  0.36321402     0.83700
C137        C  0.22992973  0.06164729  0.50542409     0.84000
O138        O  0.21485266  0.04018920  0.47461077    -0.80900
C139        C  0.25054129  0.02250027  0.78433287    -0.09100
C140        C  0.24184163  0.99565438  0.80783480     0.07100
C141        C  0.22354205  0.47512189  0.77756702    -0.02900
C142        C  0.22469483  0.47653167  0.72512788    -0.07300
C143        C  0.24250314  0.99886153  0.70145646     0.06200
C144        C  0.25081085  0.02436240  0.73212426    -0.02400
Br145      Br  0.26176185  0.06249114  0.70644924    -0.02000
H146        H  0.25717463  0.04247040  0.80672987     0.10100
H147        H  0.20760358  0.45829394  0.70296573     0.08100
Br148      Br  0.19065618  0.44106301  0.80564593    -0.02500
C149        C  0.27789435  0.51378541  0.28286589    -0.09100
C150        C  0.24890484  0.00007810  0.30751593     0.07100
C151        C  0.22292672  0.99079922  0.27817680    -0.02900
C152        C  0.22467771  0.99234166  0.22590020    -0.07300
C153        C  0.25186379  0.00285013  0.20125374     0.06200
C154        C  0.27995625  0.51569858  0.23052297    -0.02400
Br155      Br  0.31920687  0.53391610  0.20344125    -0.02000
H156        H  0.29808457  0.52182847  0.30495780     0.10100
H157        H  0.20437231  0.98471791  0.20432889     0.08100
Br158      Br  0.18393763  0.97418230  0.30608901    -0.02500
C159        C  0.08709946  0.38360621  0.48626002    -0.09100
C160        C  0.08893510  0.35764598  0.48839467     0.07100
C161        C  0.11714515  0.35990361  0.48789096    -0.02900
C162        C  0.14256308  0.38749908  0.48943083    -0.07300
C163        C  0.14097588  0.41351481  0.49025166     0.06200
C164        C  0.11295610  0.41153368  0.48692638    -0.01200
Br165      Br  0.10883359  0.44600451  0.48661693    -0.02000
H166        H  0.06560253  0.38222486  0.48580254     0.10100
H167        H  0.16396724  0.38862222  0.48992863     0.08100
Br168      Br  0.12288979  0.32625460  0.48282235    -0.02500
C169        C  0.35775783  0.11384614  0.51802614    -0.09100
C170        C  0.35665808  0.08783787  0.49990390     0.07100
C171        C  0.38235278  0.08993859  0.47780844    -0.02900
C172        C  0.40853434  0.11754752  0.47623917    -0.07300
C173        C  0.40954055  0.14334164  0.49578774     0.06200
C174        C  0.38331599  0.14117972  0.51564196    -0.02400
Br175      Br  0.37925043  0.17449845  0.53719522    -0.02000
H176        H  0.33812162  0.11322933  0.53319078     0.10100
H177        H  0.42825116  0.11877343  0.46021728     0.08100
Br178      Br  0.38352495  0.05620348  0.45054523    -0.02500
C179        C  0.47764822  0.24202735  0.71981671    -0.09100
C180        C  0.50496659  0.25272818  0.69555930     0.07100
C181        C  0.03094106  0.26293881  0.72560134    -0.02900
C182        C  0.02890162  0.26199070  0.77803769    -0.07300
C183        C  0.00149165  0.25105446  0.80220334     0.06200
C184        C  0.47558625  0.24111679  0.77205772    -0.02400
Br185      Br  0.43631814  0.22647241  0.79802593    -0.02000
H186        H  0.45739895  0.23430503  0.69799572     0.10100
H187        H  0.04908732  0.26970074  0.80003446     0.08100
Br188      Br  0.07002909  0.27792837  0.69884411    -0.02500
C189        C  0.01224429  0.23770340  0.22090497    -0.09100
C190        C  0.50011321  0.25282516  0.19616876     0.07100
C191        C  0.48918229  0.26818593  0.22548680    -0.02900
C192        C  0.48932519  0.26696425  0.27781057    -0.07300
C193        C  0.00079384  0.25126236  0.30244303     0.06200
C194        C  0.01315563  0.23718580  0.27329892    -0.02400
Br195      Br  0.03362042  0.21872701  0.30193261    -0.02000
H196        H  0.02172915  0.22663617  0.19932306     0.10100
H197        H  0.48006711  0.27824087  0.29941032     0.08100
Br198      Br  0.47297605  0.29072506  0.19768269    -0.02500
C199        C  0.11803674  0.41102549  0.01795052    -0.09100
C200        C  0.14474466  0.41042294  0.01483747     0.07100
C201        C  0.14361393  0.38284119  0.01349854    -0.02900
C202        C  0.11636554  0.35683212  0.01121026    -0.07300
C203        C  0.08957048  0.35720687  0.01156108     0.06200
C204        C  0.09050458  0.38465623  0.01659759    -0.02400
Br205      Br  0.05516807  0.38757322  0.01835300    -0.02000
H206        H  0.11853200  0.43200366  0.01965295     0.10100
H207        H  0.11616161  0.33597862  0.00949081     0.08100
Br208      Br  0.17847927  0.37890176  0.01715688    -0.02500
C209        C  0.39572502  0.12850276  0.95340555    -0.09100
C210        C  0.41407781  0.13840226  0.99655254     0.07100
C211        C  0.40584125  0.11952911  0.03796862    -0.02900
C212        C  0.37870156  0.09283326  0.03677835    -0.07300
C213        C  0.35932128  0.08423578  0.99496043     0.06200
C214        C  0.36886903  0.10191041  0.95204924    -0.02400
Br215      Br  0.34673566  0.09148218  0.88971748    -0.02000
H216        H  0.40193178  0.14195001  0.92044441     0.10100
H217        H  0.37209321  0.07947315  0.06984615     0.08100
Br218      Br  0.42911649  0.12943236  0.09878539    -0.02500
C219        C  0.24061503  0.38637955  0.49685726    -0.09100
C220        C  0.26796640  0.41265642  0.49942841     0.07100
C221        C  0.29431219  0.41120903  0.50086103    -0.02900
C222        C  0.29276736  0.38354988  0.50115330    -0.07300
C223        C  0.26518890  0.35728591  0.50029342     0.06200
C224        C  0.23897234  0.35898620  0.49687261    -0.02400
Br225      Br  0.20006498  0.32482551  0.48951827    -0.02000
H226        H  0.22017870  0.38714791  0.49453939     0.10100
H227        H  0.31306638  0.38258203  0.50366029     0.08100
Br228      Br  0.33248699  0.44611279  0.50639336    -0.02500
C229        C  0.25565813  0.11559790  0.50942326    -0.09100
C230        C  0.22868230  0.08917492  0.50304602     0.07100
C231        C  0.20257461  0.09031474  0.49334762    -0.02900
C232        C  0.20389535  0.11782196  0.49174456    -0.07300
C233        C  0.23097019  0.14414232  0.49956562     0.06200
C234        C  0.25709798  0.14277187  0.50720646    -0.02400
Br235      Br  0.29599590  0.17713091  0.51137870    -0.02000
H236        H  0.27611266  0.11518952  0.51509065     0.10100
H237        H  0.18371268  0.11863816  0.48559277     0.08100
Br238      Br  0.16462585  0.05529869  0.48507428    -0.02500
C239        C  0.09137621  0.21219865  0.45049958    -0.09100
C240        C  0.07973722  0.21567733  0.49611960     0.07100
C241        C  0.09414239  0.21634602  0.54141320    -0.02900
C242        C  0.12116807  0.21673185  0.54033673    -0.07300
C243        C  0.13447245  0.21631142  0.49470607     0.06200
C244        C  0.11858762  0.21252273  0.44939734    -0.02400
Br245      Br  0.13436111  0.21132311  0.38482130    -0.02000
H246        H  0.08047723  0.21151528  0.41535983     0.10100
H247        H  0.13257346  0.21876467  0.57559278     0.08100
Br248      Br  0.07838352  0.21766659  0.60604745    -0.02500
C249        C  0.38126835  0.29312701  0.48138129    -0.09100
C250        C  0.35995621  0.27609099  0.51706009     0.07100
C251        C  0.36772394  0.26115699  0.55251493    -0.02900
C252        C  0.39467485  0.26149644  0.54886391    -0.07300
C253        C  0.41516446  0.27671897  0.51107030     0.06200
C254        C  0.40866442  0.29380886  0.47834113    -0.02400
Br255      Br  0.43550912  0.31821220  0.42807589    -0.02000
H256        H  0.37631004  0.30536128  0.45451511     0.10100
H257        H  0.39924693  0.24900314  0.57577829     0.08100
Br258      Br  0.34330226  0.23949487  0.60769711    -0.02500
C259        C  0.27183593  0.26046938  0.78225623    -0.09100
C260        C  0.24527934  0.25095157  0.80833703     0.07100
C261        C  0.21888817  0.24249828  0.78072871    -0.02900
C262        C  0.21951104  0.24330533  0.72812692    -0.07300
C263        C  0.24598546  0.25204664  0.70218547     0.06200
C264        C  0.27237904  0.26095841  0.72983463    -0.02400
Br265      Br  0.31015165  0.27569638  0.69827219    -0.02000
H266        H  0.29238894  0.26742063  0.80281860     0.10100
H267        H  0.19911512  0.23672723  0.70732471     0.08100
Br268      Br  0.18178181  0.23127999  0.81260660    -0.02500
C269        C  0.26730143  0.28018255  0.22995782    -0.09100
C270        C  0.25468805  0.25342191  0.20232202     0.07100
C271        C  0.24252068  0.22674411  0.22797146    -0.02900
C272        C  0.24274896  0.22718904  0.28049980    -0.07300
C273        C  0.25540316  0.25395565  0.30854332     0.06200
C274        C  0.26809595  0.28075454  0.28254887    -0.02400
Br275      Br  0.28535677  0.31884711  0.31592303    -0.02000
H276        H  0.27665495  0.30081892  0.21043552     0.10100
H277        H  0.23286397  0.20638136  0.29954286     0.08100
Br278      Br  0.22363419  0.18907833  0.19305857    -0.02500
C279        C  0.28388720  0.37989849  0.04975917    -0.09100
C280        C  0.28009186  0.36394682  0.00452091     0.07100
C281        C  0.27925142  0.37665314  0.95891789    -0.02900
C282        C  0.28015071  0.40384964  0.95954328    -0.07300
C283        C  0.28210218  0.41905677  0.00495186     0.06200
C284        C  0.28523197  0.40737203  0.05037713    -0.02400
Br285      Br  0.28817943  0.42600235  0.11485292    -0.02000
H286        H  0.28468334  0.37039594  0.08505247     0.10100
H287        H  0.27779982  0.41248057  0.92429229     0.08100
Br288      Br  0.27307531  0.35635501  0.89507303    -0.02500
C289        C  0.23246867  0.10366152  0.95992441    -0.09100
C290        C  0.22546496  0.08752216  0.00434047     0.07100
C291        C  0.21786398  0.09877604  0.04722617    -0.02900
C292        C  0.21848551  0.12591433  0.04530343    -0.07300
C293        C  0.22621352  0.14213310  0.00122170     0.06200
C294        C  0.23299954  0.13066641  0.95816740    -0.02400
Br295      Br  0.24639682  0.15261426  0.89776219    -0.02000
H296        H  0.23860838  0.09575727  0.92660839     0.10100
H297        H  0.21377154  0.13486837  0.07891258     0.08100
Br298      Br  0.20910597  0.07995642  0.11087308    -0.02500
C299        C  0.12368819  0.21863830  0.96506574    -0.09100
C300        C  0.13956344  0.22583922  0.01085611     0.07100
C301        C  0.12634947  0.22973239  0.05459270    -0.02900
C302        C  0.09866570  0.22803262  0.05126842    -0.07300
C303        C  0.08396423  0.22309729  0.00484269     0.06200
C304        C  0.09629635  0.21759546  0.96168320    -0.02400
Br305      Br  0.07672077  0.20889000  0.89727591    -0.02000
H306        H  0.13330655  0.21532609  0.93115624     0.10100
H307        H  0.08934609  0.23222751  0.08476517     0.08100
Br308      Br  0.14494006  0.23766757  0.11987706    -0.02500
C309        C  0.37431564  0.27614804  0.04393355    -0.09100
C310        C  0.36040258  0.27580721  0.99860406     0.07100
C311        C  0.37453160  0.27669946  0.95289565    -0.02900
C312        C  0.40148539  0.27669641  0.95343048    -0.07300
C313        C  0.41483599  0.27597227  0.99885645     0.06200
C314        C  0.40115482  0.27612581  0.04441106    -0.02400
Br315      Br  0.41560763  0.27208302  0.10810582    -0.02000
H316        H  0.36357151  0.27512951  0.07927858     0.10100
H317        H  0.41148767  0.27606318  0.91807644     0.08100
Br318      Br  0.35663851  0.27446197  0.88859281    -0.02500
O319        O  0.31039464  0.75086780  0.03583187    -0.78400
C320        C  0.25232422  0.75421202  0.15145925     0.82600
O321        O  0.21479899  0.67645505  0.98147281    -0.79600
O322        O  0.18821926  0.75099209  0.03990363    -0.81000
O323        O  0.28294130  0.82186878  0.97670306    -0.80800
O324        O  0.32089288  0.78391075  0.97646935    -0.79500
Zn325      Zn  0.26776063  0.73444934  0.05314372     1.55700
O326        O  0.25150905  0.81419386  0.03905111    -0.80900
Cd327      Cd  0.27989976  0.78083493  0.96580401     1.59700
Cd328      Cd  0.21723636  0.71718033  0.96809838     1.59600
O329        O  0.26820369  0.76838295  0.89128834    -0.80900
O330        O  0.24952250  0.75032093  0.01023640    -1.91400
Cd331      Cd  0.23300896  0.76995556  0.05413586     1.59900
O332        O  0.22547809  0.72570383  0.89205908    -0.80800
O333        O  0.23986396  0.76670159  0.12965259    -0.79500
C334        C  0.23041998  0.67098874  0.01175839     0.83100
C335        C  0.32823074  0.76925278  0.00487270     0.82700
O336        O  0.26387229  0.74138165  0.12679057    -0.78400
C337        C  0.27000267  0.83094837  0.00698389     0.83500
O338        O  0.24988793  0.69117667  0.04044184    -0.78500
C339        C  0.24640341  0.74668234  0.86850184     0.83700
C340        C  0.16966673  0.73042991  0.01051850     0.84000
O341        O  0.17697536  0.71528804  0.98165830    -0.80900
O342        O  0.31286575  0.75447067  0.53899140    -0.78400
C343        C  0.24870922  0.74937568  0.65120958     0.82600
O344        O  0.22029572  0.68070231  0.47062603    -0.79600
O345        O  0.18539811  0.74578978  0.53504497    -0.81000
O346        O  0.28285442  0.82446163  0.48603537    -0.80800
O347        O  0.32545457  0.79002674  0.48453065    -0.79500
Zn348      Zn  0.26935162  0.73566348  0.55187908     1.55700
O349        O  0.24634610  0.81026831  0.54144289    -0.80900
Cd350      Cd  0.28351359  0.78544069  0.47078427     1.59700
Cd351      Cd  0.22159030  0.72077691  0.46187167     1.59600
O352        O  0.27493294  0.77684471  0.39417893    -0.80900
O353        O  0.25142301  0.75198293  0.50950175    -1.91400
Cd354      Cd  0.23009603  0.76623815  0.55378874     1.59900
O355        O  0.23368102  0.73295103  0.38884739    -0.80800
O356        O  0.23441706  0.76002688  0.62939275    -0.79500
C357        C  0.23543785  0.67456018  0.50066296     0.83100
C358        C  0.33234412  0.77479620  0.51261658     0.82700
O359        O  0.26304734  0.73959439  0.62617435    -0.78400
C360        C  0.26569636  0.82965998  0.51335369     0.83500
O361        O  0.25318224  0.69327214  0.53318580    -0.78500
C362        C  0.25461167  0.75543763  0.36834885     0.83700
C363        C  0.16927745  0.72756974  0.50032072     0.84000
O364        O  0.17948786  0.71582448  0.46963754    -0.80900
O365        O  0.06228554  0.75222277  0.96564106    -0.78400
C366        C  0.00304997  0.75174511  0.85063527     0.82600
O367        O  0.03575351  0.82288624  0.02974623    -0.79600
O368        O  0.43837898  0.74909446  0.95959924    -0.81000
O369        O  0.46393008  0.67871201  0.01918160    -0.80800
O370        O  0.03890148  0.71821111  0.02322643    -0.79500
Zn371      Zn  0.03655596  0.77027227  0.95140319     1.55700
O372        O  0.44037524  0.68727197  0.95794591    -0.80900
Cd373      Cd  0.00061869  0.72003483  0.03389880     1.59700
Cd374      Cd  0.99825443  0.78150297  0.03654327     1.59600
O375        O  0.49920610  0.72934687  0.10918368    -0.80900
O376        O  0.00093829  0.75140166  0.99167378    -1.91400
Cd377      Cd  0.46579553  0.73203430  0.94591087     1.59900
O378        O  0.49655041  0.77058904  0.11122855    -0.80800
O379        O  0.47795724  0.73813065  0.87168110    -0.79500
C380        C  0.05826976  0.83142443  0.00165793     0.83100
C381        C  0.06088283  0.73255414  0.99473256     0.82700
O382        O  0.02705145  0.76534201  0.87648153    -0.78400
C383        C  0.44206102  0.66982470  0.98869985     0.83500
O384        O  0.06058992  0.81392599  0.97009804    -0.78500
C385        C  0.49724202  0.74961320  0.13343645     0.83700
C386        C  0.43822200  0.76807033  0.99039323     0.84000
O387        O  0.45961346  0.78283186  0.02139566    -0.80900
O388        O  0.48170720  0.74216830  0.60984146    -0.78400
C389        C  0.44289164  0.77324216  0.49774919     0.82600
O390        O  0.45957687  0.67695372  0.46274900    -0.79600
O391        O  0.99722358  0.76880128  0.37434273    -0.81000
O392        O  0.06453283  0.81152059  0.51248882    -0.80800
O393        O  0.03081000  0.76765561  0.60929694    -0.79500
Zn394      Zn  0.46865305  0.73573029  0.53742655     1.55700
O395        O  0.03842008  0.82190066  0.45827373    -0.80900
Cd396      Cd  0.03806412  0.76869891  0.53274299     1.59700
Cd397      Cd  0.49881399  0.71680168  0.44868931     1.59600
O398        O  0.06158487  0.74727553  0.51947584    -0.80900
O399        O  0.50096720  0.75036137  0.49159504    -1.91400
Cd400      Cd  0.49961252  0.78126455  0.44928406     1.59900
O401        O  0.03642586  0.71233713  0.46056417    -0.80800
O402        O  0.46286077  0.78621299  0.46510185    -0.79500
C403        C  0.43954369  0.67238238  0.49480275     0.83100
C404        C  0.50656987  0.75530624  0.63307737     0.82700
O405        O  0.44375835  0.75455722  0.52651080    -0.78400
C406        C  0.06210202  0.82919335  0.48337601     0.83500
O407        O  0.44212888  0.69282654  0.52478425    -0.78500
C408        C  0.05870057  0.72626571  0.49043621     0.83700
C409        C  0.99755861  0.74740763  0.35076347     0.84000
O410        O  0.99815712  0.72649425  0.37358326    -0.80900
O411        O  0.31188511  0.55927555  0.96861127    -0.78400
C412        C  0.24644409  0.49830200  0.86289717     0.82600
O413        O  0.21525809  0.53832386  0.03348724    -0.79600
O414        O  0.18454541  0.93883350  0.97881136    -0.81000
O415        O  0.28406755  0.96321069  0.03179476    -0.80800
O416        O  0.32585263  0.54042602  0.02968857    -0.79500
Zn417      Zn  0.26783788  0.53490902  0.96051237     1.55700
O418        O  0.24793851  0.93776730  0.97535106    -0.80900
Cd419      Cd  0.28510672  0.50349542  0.04629173     1.59700
Cd420      Cd  0.21968999  0.50110966  0.04618535     1.59600
O421        O  0.27583442  0.50563148  0.12151634    -0.80900
O422        O  0.25210836  0.50162490  0.00370438    -1.91400
Cd423      Cd  0.22883106  0.96346214  0.96249056     1.59900
O424        O  0.23199415  0.50367651  0.12115127    -0.80800
O425        O  0.23142078  0.97175874  0.88687492    -0.79500
C426        C  0.23171205  0.56073324  0.00735484     0.83100
C427        C  0.33201623  0.55983071  0.99654510     0.82700
O428        O  0.25864163  0.52278586  0.88758544    -0.78400
C429        C  0.26892557  0.94032047  0.00365388     0.83500
O430        O  0.25177175  0.56141294  0.97917475    -0.78500
C431        C  0.25177923  0.00321813  0.14544380     0.83700
C432        C  0.16705062  0.94168551  0.00887473     0.84000
O433        O  0.17578046  0.96426292  0.03831177    -0.80900
O434        O  0.24683163  0.94124435  0.53379913    -0.78400
C435        C  0.24411033  0.99970389  0.64573730     0.82600
O436        O  0.17520919  0.96431752  0.46642522    -0.79600
O437        O  0.25040460  0.56259353  0.53199546    -0.81000
O438        O  0.32241274  0.53868804  0.47470940    -0.80800
O439        O  0.28253561  0.96153605  0.47732581    -0.79500
Zn440      Zn  0.22844996  0.96613993  0.54532936     1.55700
O441        O  0.31108128  0.56071705  0.53633987    -0.80900
Cd442      Cd  0.27952574  0.99919696  0.46227115     1.59700
Cd443      Cd  0.21674490  0.00185362  0.46037199     1.59600
O444        O  0.27080748  0.50040753  0.38608231    -0.80900
O445        O  0.24739133  0.99991587  0.50394826    -1.91400
Cd446      Cd  0.26670784  0.53553416  0.54871528     1.59900
O447        O  0.22873112  0.50200473  0.38592775    -0.80800
O448        O  0.26026968  0.52586513  0.62344971    -0.79500
C449        C  0.16842898  0.94159154  0.49202553     0.83100
C450        C  0.26658926  0.94059455  0.50655905     0.82700
O451        O  0.23013945  0.97576990  0.61974642    -0.78400
C452        C  0.32959783  0.56044034  0.50542265     0.83500
O453        O  0.18665316  0.94060423  0.52269031    -0.78500
C454        C  0.24982617  0.50135154  0.36270233     0.83700
C455        C  0.23139523  0.56233063  0.50158127     0.84000
O456        O  0.21531914  0.54005095  0.47281960    -0.80900
C457        C  0.26768144  0.52340551  0.78336814    -0.09100
C458        C  0.24541567  0.49870717  0.80733811     0.07100
C459        C  0.23247162  0.96989418  0.77716235    -0.02900
C460        C  0.23296853  0.97181955  0.72481177    -0.07300
C461        C  0.24718700  0.50115736  0.70112867     0.06200
C462        C  0.26890137  0.52484579  0.73110523    -0.02400
Br463      Br  0.30211606  0.55919001  0.70420735    -0.02000
H464        H  0.28488497  0.54159036  0.80548257     0.10100
H465        H  0.22631827  0.95192234  0.70218624     0.08100
Br466      Br  0.21948270  0.93132171  0.80281795    -0.02500
C467        C  0.27610269  0.01046955  0.28300525    -0.09100
C468        C  0.25044993  0.50237719  0.30694857     0.07100
C469        C  0.22456672  0.49280983  0.27710391    -0.02900
C470        C  0.22660534  0.49447245  0.22481403    -0.07300
C471        C  0.25399354  0.50556308  0.20061327     0.06200
C472        C  0.27787120  0.01208484  0.23061174    -0.02400
Br473      Br  0.31682413  0.02868644  0.20267989    -0.02000
H474        H  0.29632492  0.01802677  0.30479613     0.10100
H475        H  0.20635803  0.48640155  0.20288068     0.08100
Br476      Br  0.18533129  0.47573860  0.30413740    -0.02500
C477        C  0.08635151  0.88432127  0.48418693    -0.09100
C478        C  0.08834376  0.85854348  0.47805358     0.07100
C479        C  0.11630069  0.86096261  0.47093429    -0.02900
C480        C  0.14174635  0.88850046  0.47399420    -0.07300
C481        C  0.14011824  0.91415517  0.48330607     0.06200
C482        C  0.11215505  0.91220287  0.48677287    -0.01200
Br483      Br  0.10834186  0.94644755  0.49932051    -0.02000
H484        H  0.06491835  0.88268490  0.48938194     0.10100
H485        H  0.16314197  0.88985641  0.46983275     0.08100
Br486      Br  0.12117774  0.82738830  0.45632271    -0.02500
C487        C  0.35946032  0.61438769  0.51619180    -0.09100
C488        C  0.35889983  0.58792358  0.50311852     0.07100
C489        C  0.38537736  0.58930842  0.48654621    -0.02900
C490        C  0.41155140  0.61689753  0.48359464    -0.07300
C491        C  0.41184621  0.64331142  0.49703544     0.06200
C492        C  0.38509742  0.64163484  0.51303014    -0.02400
Br493      Br  0.38049994  0.67544137  0.52793346    -0.02000
H494        H  0.33932920  0.61412071  0.52768560     0.10100
H495        H  0.43179465  0.61765604  0.47143619     0.08100
Br496      Br  0.38749896  0.55448036  0.46997332    -0.02500
C497        C  0.48354033  0.73088913  0.71226736    -0.09100
C498        C  0.50678069  0.75506600  0.68875025     0.07100
C499        C  0.02923006  0.77785469  0.71897772    -0.02900
C500        C  0.02780297  0.77611236  0.77144654    -0.07300
C501        C  0.00427556  0.75204992  0.79492770     0.06200
C502        C  0.48216444  0.72903827  0.76449086    -0.02400
Br503      Br  0.45028839  0.69346649  0.79087014    -0.02000
H504        H  0.46642381  0.71288655  0.68977210     0.10100
H505        H  0.04490008  0.79406106  0.79403644     0.08100
Br506      Br  0.06136012  0.81277255  0.69156013    -0.02500
C507        C  0.01168505  0.73676602  0.21373491    -0.09100
C508        C  0.49646376  0.74884025  0.18899173     0.07100
C509        C  0.48117667  0.75989359  0.21797095    -0.02900
C510        C  0.48175478  0.75901134  0.27040230    -0.07300
C511        C  0.99714301  0.74709756  0.29513253     0.06200
C512        C  0.01233405  0.73596239  0.26612260    -0.02400
Br513      Br  0.03631758  0.72149730  0.29531133    -0.02000
H514        H  0.02386020  0.72850398  0.19219058     0.10100
H515        H  0.46975252  0.76743979  0.29202795     0.08100
Br516      Br  0.45773618  0.77495641  0.18867733    -0.02500
C517        C  0.12477192  0.90146618  0.05362139    -0.09100
C518        C  0.13604277  0.91724018  0.00953528     0.07100
C519        C  0.11948757  0.90625029  0.96442922    -0.02900
C520        C  0.09336526  0.87885865  0.96303173    -0.07300
C521        C  0.08300568  0.86217711  0.00636273     0.06200
C522        C  0.09846438  0.87405473  0.05232175    -0.02400
Br523      Br  0.08667747  0.85207824  0.11284085    -0.02000
H524        H  0.13749103  0.90945076  0.08838573     0.10100
H525        H  0.08152175  0.87016282  0.92763284     0.08100
Br526      Br  0.13208981  0.92778157  0.90354066    -0.02500
C527        C  0.39969089  0.62663600  0.94584162    -0.09100
C528        C  0.41711523  0.63886981  0.98960896     0.07100
C529        C  0.40828750  0.62233304  0.03391776    -0.02900
C530        C  0.38137717  0.59556600  0.03450638    -0.07300
C531        C  0.36282503  0.58467785  0.99171259     0.06200
C532        C  0.37302085  0.59983768  0.94634700    -0.02400
Br533      Br  0.35185757  0.58526069  0.88341842    -0.02000
H534        H  0.40646048  0.63840310  0.91104859     0.10100
H535        H  0.37413638  0.58412146  0.06952660     0.08100
Br536      Br  0.43004912  0.63598395  0.09638455    -0.02500
C537        C  0.24125351  0.88666692  0.51038228    -0.09100
C538        C  0.26823501  0.91314368  0.50677813     0.07100
C539        C  0.29478538  0.91209490  0.50370079    -0.02900
C540        C  0.29383970  0.88474465  0.50568813    -0.07300
C541        C  0.26670350  0.85837552  0.51068129     0.06200
C542        C  0.24017548  0.85959199  0.51182442    -0.02400
Br543      Br  0.20126461  0.82512652  0.51138031    -0.02000
H544        H  0.22052423  0.88692204  0.51113260     0.10100
H545        H  0.31434996  0.88412749  0.50418234     0.08100
Br546      Br  0.33272020  0.94716520  0.49959307    -0.02500
C547        C  0.25801157  0.61637475  0.50334539    -0.09100
C548        C  0.23072100  0.59014889  0.49780387     0.07100
C549        C  0.20478927  0.59179491  0.48928279    -0.02900
C550        C  0.20653036  0.61952889  0.48901692    -0.07300
C551        C  0.23383633  0.64560759  0.49701963     0.06200
C552        C  0.25985267  0.64378533  0.50262276    -0.02400
Br553      Br  0.29903088  0.67781412  0.50683138    -0.02000
H554        H  0.27835284  0.61561763  0.50793047     0.10100
H555        H  0.18644654  0.62068414  0.48405424     0.08100
Br556      Br  0.16651974  0.55720491  0.48104971    -0.02500
C557        C  0.09834457  0.72115749  0.44691519    -0.09100
C558        C  0.08292966  0.71920706  0.49118068     0.07100
C559        C  0.09427254  0.71592537  0.53716761    -0.02900
C560        C  0.12165903  0.71694903  0.53890080    -0.07300
C561        C  0.13816739  0.72097277  0.49522457     0.06200
C562        C  0.12585485  0.72218919  0.44857686    -0.02400
Br563      Br  0.14728090  0.72932138  0.38703374    -0.02000
H564        H  0.09008791  0.72414488  0.41141796     0.10100
H565        H  0.13060082  0.71561245  0.57491122     0.08100
Br566      Br  0.07342260  0.71072943  0.59891867    -0.02500
C567        C  0.38155347  0.79209805  0.47147483    -0.09100
C568        C  0.36303189  0.77921287  0.51278667     0.07100
C569        C  0.37322570  0.76799341  0.55110304    -0.02900
C570        C  0.39988879  0.76798818  0.54593468    -0.07300
C571        C  0.41738577  0.77872090  0.50305842     0.06200
C572        C  0.40844603  0.79195723  0.46622096    -0.02400
Br573      Br  0.43054423  0.80866887  0.40650174    -0.02000
H574        H  0.37444978  0.80108169  0.44174925     0.10100
H575        H  0.40651359  0.75856762  0.57564173     0.08100
Br576      Br  0.35227069  0.75166131  0.61191114    -0.02500
C577        C  0.27232385  0.75319020  0.78784807    -0.09100
C578        C  0.24598699  0.74598375  0.81297146     0.07100
C579        C  0.22050372  0.73975992  0.78458317    -0.02900
C580        C  0.22187902  0.74103250  0.73205928    -0.07300
C581        C  0.24823522  0.74805483  0.70681958     0.06200
C582        C  0.27362960  0.75411813  0.73545569    -0.02400
Br583      Br  0.31140600  0.76608972  0.70602041    -0.02000
H584        H  0.29217078  0.75833307  0.80923783     0.10100
H585        H  0.20218546  0.73648988  0.71078930     0.08100
Br586      Br  0.18393346  0.73146366  0.81560965    -0.02500
C587        C  0.26322830  0.78125309  0.23375160    -0.09100
C588        C  0.25330002  0.75451719  0.20675118     0.07100
C589        C  0.24401502  0.72838200  0.23308524    -0.02900
C590        C  0.24486655  0.72934995  0.28553224    -0.07300
C591        C  0.25513987  0.75610259  0.31282661     0.06200
C592        C  0.26445566  0.78233598  0.28634818    -0.02400
Br593      Br  0.27727604  0.81992834  0.31942307    -0.02000
H594        H  0.27016915  0.80144537  0.21376803     0.10100
H595        H  0.23736398  0.70894703  0.30514484     0.08100
Br596      Br  0.22807011  0.69048679  0.19945775    -0.02500
C597        C  0.28142031  0.87867902  0.04829668    -0.09100
C598        C  0.27530467  0.86137165  0.00403245     0.07100
C599        C  0.27048054  0.87193872  0.95888471    -0.02900
C600        C  0.27011660  0.89854094  0.95925024    -0.07300
C601        C  0.27485244  0.91530628  0.00394995     0.06200
C602        C  0.28161977  0.90561098  0.04857443    -0.02400
Br603      Br  0.28833949  0.92633596  0.11208353    -0.02000
H604        H  0.28505803  0.87068242  0.08326861     0.10100
H605        H  0.26496156  0.90561377  0.92459189     0.08100
Br606      Br  0.26086968  0.84936792  0.89681971    -0.02500
C607        C  0.20325970  0.58786313  0.00005307    -0.09100
C608        C  0.22963749  0.58788031  0.01179342     0.07100
C609        C  0.25517266  0.61476184  0.02500600    -0.02900
C610        C  0.25432427  0.64097220  0.02536649    -0.07300
C611        C  0.22838743  0.64152365  0.01225203     0.06200
C612        C  0.20249907  0.61447189  0.99975322    -0.02400
Br613      Br  0.16551732  0.61229471  0.98335051    -0.02000
H614        H  0.18348209  0.56728214  0.98986592     0.10100
H615        H  0.27453629  0.66126850  0.03508845     0.08100
Br616      Br  0.29201192  0.61704871  0.04393332    -0.02500
C617        C  0.12645742  0.72322553  0.95994908    -0.09100
C618        C  0.13928320  0.72566903  0.00752999     0.07100
C619        C  0.12438550  0.72723542  0.05070462    -0.02900
C620        C  0.09791940  0.72777883  0.04557716    -0.07300
C621        C  0.08626800  0.72750779  0.99792695     0.06200
C622        C  0.10031877  0.72447764  0.95483068    -0.02400
Br623      Br  0.08475866  0.72196129  0.88837852    -0.02000
H624        H  0.13763689  0.72194461  0.92644707     0.10100
H625        H  0.08712592  0.72983655  0.07900817     0.08100
Br626      Br  0.13922134  0.72894715  0.11750995    -0.02500
C627        C  0.38324945  0.79537101  0.01618605    -0.09100
C628        C  0.35696218  0.77085812  0.99836325     0.07100
C629        C  0.35784978  0.74674340  0.97586431    -0.02900
C630        C  0.38468549  0.74703425  0.97232177    -0.07300
C631        C  0.41120861  0.77098972  0.99157109     0.06200
C632        C  0.41035277  0.79560787  0.01326743    -0.02400
Br633      Br  0.44501702  0.83029387  0.03882699    -0.02000
H634        H  0.38258369  0.81404508  0.03336953     0.10100
H635        H  0.38447856  0.72780934  0.95562721     0.08100
Br636      Br  0.32273797  0.71261882  0.94961159    -0.02500
O637        O  0.81213290  0.25268036  0.03168792    -0.78400
C638        C  0.75378209  0.25377974  0.14707632     0.82600
O639        O  0.71642464  0.17952664  0.97277269    -0.79600
O640        O  0.68972029  0.25283845  0.03891073    -0.81000
O641        O  0.78598107  0.32366250  0.97557874    -0.80800
O642        O  0.82182948  0.28438083  0.97046796    -0.79500
Zn643      Zn  0.76883890  0.23473862  0.04748962     1.55700
O644        O  0.75424297  0.31611181  0.03733022    -0.80900
Cd645      Cd  0.78123385  0.28223335  0.96148363     1.59700
Cd646      Cd  0.71814299  0.22000557  0.96317436     1.59600
O647        O  0.76879397  0.27156792  0.88685554    -0.80900
O648        O  0.75085919  0.25183545  0.00602203    -1.91400
Cd649      Cd  0.73488658  0.27156149  0.05116713     1.59900
O650        O  0.72523364  0.22988999  0.88738424    -0.80800
O651        O  0.74223430  0.26741825  0.12617876    -0.79500
C652        C  0.73093756  0.17244477  0.00269205     0.83100
C653        C  0.82989902  0.27092971  0.00033312     0.82700
O654        O  0.76448337  0.24042229  0.12158282    -0.78400
C655        C  0.77340599  0.33298820  0.00614515     0.83500
O656        O  0.75045018  0.19113593  0.03324123    -0.78500
C657        C  0.74626410  0.25080689  0.86391655     0.83700
C658        C  0.67059035  0.23185270  0.01078749     0.84000
O659        O  0.67770000  0.21696460  0.98086918    -0.80900
O660        O  0.80905330  0.25214004  0.53954981    -0.78400
C661        C  0.74565684  0.25149801  0.64668525     0.82600
O662        O  0.71850120  0.17908240  0.46818316    -0.79600
O663        O  0.68279153  0.24369423  0.52912309    -0.81000
O664        O  0.78154035  0.32288608  0.47989977    -0.80800
O665        O  0.82353104  0.28766665  0.48476445    -0.79500
Zn666      Zn  0.76553868  0.23438907  0.55019379     1.55700
O667        O  0.74299124  0.30907871  0.53079993    -0.80900
Cd668      Cd  0.78194653  0.28337715  0.46734715     1.59700
Cd669      Cd  0.71916293  0.21878248  0.45733050     1.59600
O670        O  0.77442672  0.27382602  0.39073252    -0.80900
O671        O  0.74870962  0.25043111  0.50509360    -1.91400
Cd672      Cd  0.72734664  0.26567032  0.54685509     1.59900
O673        O  0.73199766  0.23097340  0.38408046    -0.80800
O674        O  0.73178223  0.26206186  0.62338646    -0.79500
C675        C  0.73234426  0.17298070  0.50106433     0.83100
C676        C  0.82941569  0.27218646  0.51410536     0.82700
O677        O  0.75922436  0.24033204  0.62323257    -0.78400
C678        C  0.76349130  0.32831133  0.50412597     0.83500
O679        O  0.74892971  0.19174217  0.53455855    -0.78500
C680        C  0.75394019  0.25296989  0.36419465     0.83700
C681        C  0.66615671  0.22427615  0.49631284     0.84000
O682        O  0.67629099  0.21245555  0.46555150    -0.80900
O683        O  0.55907298  0.24608675  0.97002769    -0.78400
C684        C  0.50082084  0.25021175  0.85811580     0.82600
O685        O  0.53907127  0.32286871  0.03202556    -0.79600
O686        O  0.93858877  0.25060040  0.96753964    -0.81000
O687        O  0.96133663  0.17740640  0.02833512    -0.80800
O688        O  0.53730140  0.21553886  0.03285108    -0.79500
Zn689      Zn  0.53522023  0.26612904  0.95760069     1.55700
O690        O  0.93856489  0.18735175  0.96756223    -0.80900
Cd691      Cd  0.49919981  0.21855220  0.04261141     1.59700
Cd692      Cd  0.50035281  0.28247107  0.04163222     1.59600
O693        O  0.99902180  0.23011308  0.11733797    -0.80900
O694        O  0.50034467  0.24999212  0.99915927    -1.91400
Cd695      Cd  0.96466532  0.23173705  0.95459556     1.59900
O696        O  0.99997838  0.27321086  0.11690675    -0.80800
O697        O  0.97608001  0.23686748  0.88013993    -0.79500
C698        C  0.56183079  0.32832345  0.00626258     0.83100
C699        C  0.55834287  0.22789176  0.00172434     0.82700
O700        O  0.52512954  0.26274211  0.88325430    -0.78400
C701        C  0.93959341  0.16925979  0.99764596     0.83500
O702        O  0.56226158  0.30867829  0.97750511    -0.78500
C703        C  0.99949854  0.25203725  0.14042707     0.83700
C704        C  0.94024834  0.27071926  0.99759421     0.84000
O705        O  0.96239343  0.28532516  0.02736454    -0.80900
O706        O  0.98015098  0.23964129  0.61604036    -0.78400
C707        C  0.94137239  0.27213014  0.50621309     0.82600
O708        O  0.95740872  0.17750408  0.46315078    -0.79600
O709        O  0.49849971  0.27096991  0.38255532    -0.81000
O710        O  0.56380996  0.30990358  0.52083928    -0.80800
O711        O  0.52912253  0.26511762  0.61579361    -0.79500
Zn712      Zn  0.96731215  0.23431208  0.54363415     1.55700
O713        O  0.53825979  0.32213992  0.46889103    -0.80900
Cd714      Cd  0.53671130  0.26690484  0.53943742     1.59700
Cd715      Cd  0.99757191  0.21681642  0.45363507     1.59600
O716        O  0.55953596  0.24487195  0.52479991    -0.80900
O717        O  0.99982179  0.24975482  0.49826077    -1.91400
Cd718      Cd  0.99910411  0.28168855  0.45808470     1.59900
O719        O  0.53366249  0.21016025  0.46613007    -0.80800
O720        O  0.96156171  0.28567601  0.47402582    -0.79500
C721        C  0.93748403  0.17221638  0.49572371     0.83100
C722        C  0.00493500  0.25253642  0.63958313     0.82700
O723        O  0.94236378  0.25324449  0.53428398    -0.78400
C724        C  0.56200366  0.32845102  0.49308496     0.83500
O725        O  0.94053034  0.19171829  0.52830030    -0.78500
C726        C  0.55604540  0.22358375  0.49585703     0.83700
C727        C  0.49962333  0.25025235  0.35799169     0.84000
O728        O  0.49941800  0.22869864  0.37976611    -0.80900
O729        O  0.80840654  0.05841824  0.97092698    -0.78400
C730        C  0.74323476  0.99586250  0.86370999     0.82600
O731        O  0.71537555  0.04052413  0.03610182    -0.79600
O732        O  0.69218345  0.43731648  0.97999313    -0.81000
O733        O  0.78853752  0.46558530  0.03522827    -0.80800
O734        O  0.82244433  0.03867307  0.03022257    -0.79500
Zn735      Zn  0.76454845  0.03357674  0.96047250     1.55700
O736        O  0.75683474  0.44201270  0.97180857    -0.80900
Cd737      Cd  0.78145243  0.00142827  0.04547029     1.59700
Cd738      Cd  0.71767992  0.00216209  0.04875546     1.59600
O739        O  0.77259724  0.00253920  0.12123298    -0.80900
O740        O  0.74830135  0.00052371  0.00453780    -1.91400
Cd741      Cd  0.73514428  0.46529269  0.96037217     1.59900
O742        O  0.73012162  0.00337338  0.12304046    -0.80800
O743        O  0.73622418  0.47388817  0.88493350    -0.79500
C744        C  0.72950342  0.06119307  0.00535648     0.83100
C745        C  0.82857262  0.05882380  0.99854501     0.82700
O746        O  0.75638154  0.02058264  0.88767944    -0.78400
C747        C  0.77592953  0.44386460  0.00385476     0.83500
O748        O  0.74794794  0.06025523  0.97503373    -0.78500
C749        C  0.75419545  0.50526841  0.14468104     0.83700
C750        C  0.67355040  0.43798458  0.01016135     0.84000
O751        O  0.67950291  0.46111736  0.03650184    -0.80900
O752        O  0.74781536  0.44104543  0.53075107    -0.78400
C753        C  0.74752218  0.50137906  0.64539202     0.82600
O754        O  0.67579154  0.46327330  0.46817854    -0.79600
O755        O  0.74853067  0.06145783  0.53630193    -0.81000
O756        O  0.82021957  0.03831367  0.47270981    -0.80800
O757        O  0.78311264  0.46180211  0.47361903    -0.79500
Zn758      Zn  0.73075466  0.46688310  0.54568741     1.55700
O759        O  0.80957670  0.06011383  0.53560735    -0.80900
Cd760      Cd  0.78114177  0.50032784  0.46155662     1.59700
Cd761      Cd  0.71715924  0.50135192  0.46025326     1.59600
O762        O  0.76866331  0.99748451  0.38673480    -0.80900
O763        O  0.74872392  0.50047029  0.50341170    -1.91400
Cd764      Cd  0.76558930  0.03455281  0.55012048     1.59900
O765        O  0.72855043  0.00259632  0.38626935    -0.80800
O766        O  0.75986254  0.02415005  0.62468888    -0.79500
C767        C  0.66943208  0.44144251  0.49604163     0.83100
C768        C  0.76704694  0.44044330  0.50204053     0.82700
O769        O  0.73500337  0.47701571  0.62029269    -0.78400
C770        C  0.82760464  0.06014534  0.50327377     0.83500
O771        O  0.68825501  0.44161129  0.52679206    -0.78500
C772        C  0.74855085  0.99984759  0.36323102     0.83700
C773        C  0.72993020  0.06165088  0.50543884     0.84000
O774        O  0.71485065  0.04019106  0.47462980    -0.80900
C775        C  0.75049560  0.02249184  0.78434837    -0.09100
C776        C  0.74184806  0.99565683  0.80785080     0.07100
C777        C  0.72354016  0.47512033  0.77755105    -0.02900
C778        C  0.72469285  0.47653037  0.72511174    -0.07300
C779        C  0.74250149  0.99886022  0.70147413     0.06200
C780        C  0.75076062  0.02435138  0.73213912    -0.02400
Br781      Br  0.76163118  0.06245783  0.70645297    -0.02000
H782        H  0.75708887  0.04245383  0.80674585     0.10100
H783        H  0.70760162  0.45829269  0.70294950     0.08100
Br784      Br  0.69065446  0.44106139  0.80563010    -0.02500
C785        C  0.77789292  0.51378825  0.28285074    -0.09100
C786        C  0.74889600  0.00007534  0.30753270     0.07100
C787        C  0.72291768  0.99079418  0.27819292    -0.02900
C788        C  0.72466891  0.99233621  0.22591594    -0.07300
C789        C  0.75185551  0.00284649  0.20127013     0.06200
C790        C  0.77995543  0.51570191  0.23050789    -0.02400
Br791      Br  0.81920643  0.53392248  0.20342736    -0.02000
H792        H  0.79808301  0.52183288  0.30494358     0.10100
H793        H  0.70436347  0.98471085  0.20434387     0.08100
Br794      Br  0.68392853  0.97417470  0.30610548    -0.02500
C795        C  0.58709360  0.38361110  0.48624096    -0.09100
C796        C  0.58892831  0.35765063  0.48838535     0.07100
C797        C  0.61713798  0.35990741  0.48788826    -0.02900
C798        C  0.64255632  0.38750237  0.48942559    -0.07300
C799        C  0.64097025  0.41351866  0.49023740     0.06200
C800        C  0.61295091  0.41153827  0.48690462    -0.01200
Br801      Br  0.60882975  0.44600973  0.48657983    -0.02000
H802        H  0.56559691  0.38223028  0.48577747     0.10100
H803        H  0.66395994  0.38862454  0.48992824     0.08100
Br804      Br  0.62288197  0.32625762  0.48283173    -0.02500
C805        C  0.85776144  0.11384418  0.51806260    -0.09100
C806        C  0.85665643  0.08783737  0.49991782     0.07100
C807        C  0.88234631  0.08993976  0.47779832    -0.02900
C808        C  0.90852849  0.11754821  0.47622916    -0.07300
C809        C  0.90954000  0.14334064  0.49579980     0.06200
C810        C  0.88331970  0.14117751  0.51567705    -0.02400
Br811      Br  0.87925885  0.17449451  0.53726069    -0.02000
H812        H  0.83812884  0.11322694  0.53324584     0.10100
H813        H  0.92824155  0.11877511  0.46018828     0.08100
Br814      Br  0.88351119  0.05620820  0.45049697    -0.02500
C815        C  0.97765676  0.24204160  0.71982497    -0.09100
C816        C  0.00497475  0.25273757  0.69556808     0.07100
C817        C  0.53093318  0.26292952  0.72559194    -0.02900
C818        C  0.52889440  0.26198221  0.77802828    -0.07300
C819        C  0.50148463  0.25104452  0.80219490     0.06200
C820        C  0.97559451  0.24113259  0.77206587    -0.02400
Br821      Br  0.93632842  0.22650109  0.79803459    -0.02000
H822        H  0.95740805  0.23432219  0.69800362     0.10100
H823        H  0.54908074  0.26969440  0.80002442     0.08100
Br824      Br  0.57002079  0.27791713  0.69883398    -0.02500
C825        C  0.51224522  0.23770374  0.22089795    -0.09100
C826        C  0.00012158  0.25283341  0.19617610     0.07100
C827        C  0.98920186  0.26820402  0.22549550    -0.02900
C828        C  0.98934408  0.26698147  0.27781955    -0.07300
C829        C  0.50078623  0.25125545  0.30243478     0.06200
C830        C  0.51315690  0.23718706  0.27329211    -0.02400
Br831      Br  0.53363509  0.21874282  0.30192922    -0.02000
H832        H  0.52173764  0.22664378  0.19931630     0.10100
H833        H  0.98009400  0.27826535  0.29941984     0.08100
Br834      Br  0.97301255  0.29075883  0.19769404    -0.02500
C835        C  0.61803456  0.41102750  0.01792769    -0.09100
C836        C  0.64474305  0.41042516  0.01483020     0.07100
C837        C  0.64361296  0.38284377  0.01350791    -0.02900
C838        C  0.61636487  0.35683405  0.01121870    -0.07300
C839        C  0.58956963  0.35720848  0.01155366     0.06200
C840        C  0.59050271  0.38465785  0.01657496    -0.02400
Br841      Br  0.55516511  0.38757333  0.01830832    -0.02000
H842        H  0.61852930  0.43200557  0.01961724     0.10100
H843        H  0.61616110  0.33598060  0.00951114     0.08100
Br844      Br  0.67847906  0.37890694  0.01719086    -0.02500
C845        C  0.89573107  0.12849678  0.95342061    -0.09100
C846        C  0.91408408  0.13839783  0.99656730     0.07100
C847        C  0.90584703  0.11952617  0.03798569    -0.02900
C848        C  0.87870579  0.09283161  0.03679901    -0.07300
C849        C  0.85932492  0.08423364  0.99498174     0.06200
C850        C  0.86887400  0.10190553  0.95206745    -0.02400
Br851      Br  0.84674105  0.09147479  0.88973514    -0.02000
H852        H  0.90193830  0.14194218  0.92045720     0.10100
H853        H  0.87209699  0.07947301  0.06986847     0.08100
Br854      Br  0.92912443  0.12942932  0.09879983    -0.02500
C855        C  0.74061796  0.38638080  0.49682612    -0.09100
C856        C  0.76796735  0.41265937  0.49941279     0.07100
C857        C  0.79431478  0.41121545  0.50086431    -0.02900
C858        C  0.79277330  0.38355783  0.50116060    -0.07300
C859        C  0.76519643  0.35729204  0.50028632     0.06200
C860        C  0.73897869  0.35898892  0.49684523    -0.02400
Br861      Br  0.70007509  0.32482494  0.48946881    -0.02000
H862        H  0.72018076  0.38714676  0.49449409     0.10100
H863        H  0.81307315  0.38259246  0.50368288     0.08100
Br864      Br  0.83248646  0.44612196  0.50641817    -0.02500
C865        C  0.75566122  0.11560190  0.50942313    -0.09100
C866        C  0.72868417  0.08917914  0.50305629     0.07100
C867        C  0.70257615  0.09031948  0.49336416    -0.02900
C868        C  0.70389776  0.11782705  0.49175844    -0.07300
C869        C  0.73097382  0.14414726  0.49957006     0.06200
C870        C  0.75710185  0.14277619  0.50720306    -0.02400
Br871      Br  0.79600037  0.17713480  0.51136034    -0.02000
H872        H  0.77611583  0.11519290  0.51508526     0.10100
H873        H  0.68371483  0.11864372  0.48561265     0.08100
Br874      Br  0.66462600  0.05530385  0.48510398    -0.02500
C875        C  0.59138677  0.21221696  0.45049355    -0.09100
C876        C  0.57974628  0.21569446  0.49611284     0.07100
C877        C  0.59415080  0.21636332  0.54140728    -0.02900
C878        C  0.62117627  0.21674865  0.54033271    -0.07300
C879        C  0.63448130  0.21632753  0.49470320     0.06200
C880        C  0.61859804  0.21254054  0.44939325    -0.02400
Br881      Br  0.63437351  0.21134201  0.38481865    -0.02000
H882        H  0.58048854  0.21153395  0.41535298     0.10100
H883        H  0.63258061  0.21878079  0.57558950     0.08100
Br884      Br  0.57839070  0.21768323  0.60604061    -0.02500
C885        C  0.88128032  0.29313852  0.48141960    -0.09100
C886        C  0.85996265  0.27609365  0.51708458     0.07100
C887        C  0.86772495  0.26115020  0.55252922    -0.02900
C888        C  0.89467496  0.26148768  0.54887699    -0.07300
C889        C  0.91516986  0.27671909  0.51109491     0.06200
C890        C  0.90867630  0.29382003  0.47838112    -0.02400
Br891      Br  0.93553169  0.31824115  0.42814322    -0.02000
H892        H  0.87632708  0.30538135  0.45456358     0.10100
H893        H  0.89924233  0.24898631  0.57578138     0.08100
Br894      Br  0.84329734  0.23947799  0.60769927    -0.02500
C895        C  0.77183276  0.26047808  0.78226457    -0.09100
C896        C  0.74527370  0.25094854  0.80834369     0.07100
C897        C  0.71888052  0.24248366  0.78073274    -0.02900
C898        C  0.71950473  0.24329288  0.72813097    -0.07300
C899        C  0.74598220  0.25204676  0.70219221     0.06200
C900        C  0.77237700  0.26096838  0.72984318    -0.02400
Br901      Br  0.81015161  0.27571990  0.69828189    -0.02000
H902        H  0.79238717  0.26743737  0.80282814     0.10100
H903        H  0.69910761  0.23670631  0.70732646     0.08100
Br904      Br  0.68176844  0.23124503  0.81260583    -0.02500
C905        C  0.76730612  0.28018684  0.22996504    -0.09100
C906        C  0.75468865  0.25342563  0.20233034     0.07100
C907        C  0.74252044  0.22674821  0.22798087    -0.02900
C908        C  0.74275224  0.22719396  0.28050917    -0.07300
C909        C  0.75541054  0.25396104  0.30855175     0.06200
C910        C  0.76810388  0.28075958  0.28255620    -0.02400
Br911      Br  0.78536946  0.31885269  0.31592937    -0.02000
H912        H  0.77666037  0.30082288  0.21044190     0.10100
H913        H  0.73286639  0.20638649  0.29955296     0.08100
Br914      Br  0.72362784  0.18908197  0.19306975    -0.02500
C915        C  0.78388387  0.37989902  0.04975917    -0.09100
C916        C  0.78009112  0.36394690  0.00452229     0.07100
C917        C  0.77925240  0.37665265  0.95891744    -0.02900
C918        C  0.78015098  0.40384889  0.95953940    -0.07300
C919        C  0.78210044  0.41905666  0.00494621     0.06200
C920        C  0.78522816  0.40737241  0.05037363    -0.02400
Br921      Br  0.78817210  0.42600338  0.11484735    -0.02000
H922        H  0.78467842  0.37039698  0.08505399     0.10100
H923        H  0.77780149  0.41247931  0.92428683     0.08100
Br924      Br  0.77307992  0.35635414  0.89507384    -0.02500
C925        C  0.73246828  0.10366198  0.95993624    -0.09100
C926        C  0.72546593  0.08752328  0.00435293     0.07100
C927        C  0.71786527  0.09877718  0.04723886    -0.02900
C928        C  0.71848560  0.12591488  0.04531587    -0.07300
C929        C  0.72621216  0.14213305  0.00123352     0.06200
C930        C  0.73299790  0.13066631  0.95817890    -0.02400
Br931      Br  0.74639344  0.15261355  0.89777272    -0.02000
H932        H  0.73860773  0.09575765  0.92662020     0.10100
H933        H  0.71377198  0.13486899  0.07892516     0.08100
Br934      Br  0.70910999  0.07995864  0.11088667    -0.02500
C935        C  0.62368436  0.21863500  0.96507121    -0.09100
C936        C  0.63956072  0.22584051  0.01086114     0.07100
C937        C  0.62634777  0.22973857  0.05459493    -0.02900
C938        C  0.59866409  0.22803883  0.05126796    -0.07300
C939        C  0.58396156  0.22309855  0.00484216     0.06200
C940        C  0.59629251  0.21759208  0.96168593    -0.02400
Br941      Br  0.57671503  0.20887996  0.89727967    -0.02000
H942        H  0.63330172  0.21531903  0.93116375     0.10100
H943        H  0.58934527  0.23223731  0.08476203     0.08100
Br944      Br  0.64493924  0.23768039  0.11987933    -0.02500
C945        C  0.87432777  0.27617453  0.04392813    -0.09100
C946        C  0.86039728  0.27579831  0.99859787     0.07100
C947        C  0.87450749  0.27665376  0.95288608    -0.02900
C948        C  0.90146102  0.27665038  0.95341996    -0.07300
C949        C  0.91483070  0.27596263  0.99884900     0.06200
C950        C  0.90116837  0.27615439  0.04440587    -0.02400
Br951      Br  0.91565094  0.27217273  0.10811561    -0.02000
H952        H  0.86359719  0.27518448  0.07927637     0.10100
H953        H  0.91144846  0.27598924  0.91806521     0.08100
Br954      Br  0.85658712  0.27436598  0.88858816    -0.02500
O955        O  0.81039803  0.75087303  0.03582001    -0.78400
C956        C  0.75232804  0.75421734  0.15144723     0.82600
O957        O  0.71480064  0.67645894  0.98146361    -0.79600
O958        O  0.68822338  0.75099839  0.03989431    -0.81000
O959        O  0.78294425  0.82187266  0.97668797    -0.80800
O960        O  0.82089499  0.78391392  0.97645418    -0.79500
Zn961      Zn  0.76776383  0.73445377  0.05313160     1.55700
O962        O  0.75151445  0.81419856  0.03903979    -0.80900
Cd963      Cd  0.77990170  0.78083816  0.96578939     1.59700
Cd964      Cd  0.71723776  0.71718409  0.96808889     1.59600
O965        O  0.76820397  0.76838416  0.89127454    -0.80900
O966        O  0.74952533  0.75032502  0.01022416    -1.91400
Cd967      Cd  0.73301299  0.76996048  0.05412401     1.59900
O968        O  0.72547742  0.72570598  0.89204875    -0.80800
O969        O  0.73986810  0.76670712  0.12964046    -0.79500
C970        C  0.73042252  0.67099273  0.01174738     0.83100
C971        C  0.82823364  0.76925731  0.00485946     0.82700
O972        O  0.76387562  0.74138646  0.12677858    -0.78400
C973        C  0.77000735  0.83095280  0.00697160     0.83500
O974        O  0.74989132  0.69118083  0.04042962    -0.78500
C975        C  0.74640281  0.74668343  0.86848983     0.83700
C976        C  0.66966985  0.73043548  0.01051151     0.84000
O977        O  0.67697730  0.71529249  0.98165173    -0.80900
O978        O  0.81286502  0.75447101  0.53897809    -0.78400
C979        C  0.74870775  0.74937370  0.65119727     0.82600
O980        O  0.72029535  0.68070488  0.47060951    -0.79600
O981        O  0.68539822  0.74579010  0.53503410    -0.81000
O982        O  0.78285465  0.82446452  0.48602929    -0.80800
O983        O  0.82545504  0.79002864  0.48452007    -0.79500
Zn984      Zn  0.76935102  0.73566401  0.55186542     1.55700
O985        O  0.74634581  0.81026878  0.54143618    -0.80900
Cd986      Cd  0.78351424  0.78544384  0.47077407     1.59700
Cd987      Cd  0.72159089  0.72077998  0.46185716     1.59600
O988        O  0.77493422  0.77684978  0.39416789    -0.80900
O989        O  0.75142328  0.75198475  0.50948913    -1.91400
Cd990      Cd  0.73009586  0.76623844  0.55377788     1.59900
O991        O  0.73368274  0.73295573  0.38883409    -0.80800
O992        O  0.73441605  0.76002560  0.62938117    -0.79500
C993        C  0.73543700  0.67456188  0.50064589     0.83100
C994        C  0.83234388  0.77479693  0.51260451     0.82700
O995        O  0.76304592  0.73959283  0.62616117    -0.78400
C996        C  0.76569615  0.82966166  0.51334885     0.83500
O997        O  0.75318159  0.69327310  0.53316941    -0.78500
C998        C  0.75461344  0.75544280  0.36833677     0.83700
C999        C  0.66927771  0.72757102  0.50030873     0.84000
O1000       O  0.67948837  0.71582714  0.46962325    -0.80900
O1001       O  0.56228423  0.75222422  0.96564987    -0.78400
C1002       C  0.50304578  0.75174084  0.85064741     0.82600
O1003       O  0.53574939  0.82288521  0.02975753    -0.79600
O1004       O  0.93838254  0.74909997  0.95958693    -0.81000
O1005       O  0.96392879  0.67871505  0.01916931    -0.80800
O1006       O  0.53890296  0.71821177  0.02323515    -0.79500
Zn1007     Zn  0.53655255  0.77027104  0.95141436     1.55700
O1008       O  0.94037655  0.68727650  0.95793122    -0.80900
Cd1009     Cd  0.50061875  0.72003286  0.03391007     1.59700
Cd1010     Cd  0.49825177  0.78150012  0.03655519     1.59600
O1011       O  0.99920720  0.72934937  0.10917233    -0.80900
O1012       O  0.50093588  0.75139881  0.99168586    -1.91400
Cd1013     Cd  0.96579832  0.73203893  0.94589791     1.59900
O1014       O  0.99655310  0.77059240  0.11121713    -0.80800
O1015       O  0.97796113  0.73813616  0.87166850    -0.79500
C1016       C  0.55826495  0.83142404  0.00166726     0.83100
C1017       C  0.56088342  0.73255593  0.99473999     0.82700
O1018       O  0.52704716  0.76533945  0.87649346    -0.78400
C1019       C  0.94206063  0.66982857  0.98868580     0.83500
O1020       O  0.56058450  0.81392495  0.97010782    -0.78500
C1021       C  0.99724438  0.74961639  0.13342504     0.83700
C1022       C  0.93822561  0.76807565  0.99038142     0.84000
O1023       O  0.95961706  0.78283676  0.02138413    -0.80900
O1024       O  0.98170876  0.74216894  0.60982987    -0.78400
C1025       C  0.94289173  0.77324244  0.49773766     0.82600
O1026       O  0.95957697  0.67695571  0.46273289    -0.79600
O1027       O  0.49722396  0.76880101  0.37435437    -0.81000
O1028       O  0.56453023  0.81151841  0.51250867    -0.80800
O1029       O  0.53080854  0.76764878  0.60930953    -0.79500
Zn1030     Zn  0.96865400  0.73573101  0.53741487     1.55700
O1031       O  0.53842050  0.82189977  0.45828930    -0.80900
Cd1032     Cd  0.53806263  0.76869544  0.53275549     1.59700
Cd1033     Cd  0.99881610  0.71680338  0.44867796     1.59600
O1034       O  0.56158455  0.74727391  0.51948153    -0.80900
O1035       O  0.00096827  0.75036279  0.49158333    -1.91400
Cd1036     Cd  0.99961237  0.78126506  0.44927182     1.59900
O1037       O  0.53642454  0.71233652  0.46056894    -0.80800
O1038       O  0.96286045  0.78621303  0.46508962    -0.79500
C1039       C  0.93954327  0.67238392  0.49478599     0.83100
C1040       C  0.00657156  0.75531024  0.63306527     0.82700
O1041       O  0.94375918  0.75455810  0.52649988    -0.78400
C1042       C  0.56210098  0.82919200  0.48339580     0.83500
O1043       O  0.94212889  0.69282731  0.52476993    -0.78500
C1044       C  0.55870003  0.72626500  0.49043925     0.83700
C1045       C  0.49755582  0.74740563  0.35077531     0.84000
O1046       O  0.49815189  0.72649113  0.37359531    -0.80900
O1047       O  0.81188374  0.55927685  0.96859356    -0.78400
C1048       C  0.74644198  0.49830058  0.86288182     0.82600
O1049       O  0.71525910  0.53832696  0.03347286    -0.79600
O1050       O  0.68454634  0.93883472  0.97882147    -0.81000
O1051       O  0.78406735  0.96321171  0.03180959    -0.80800
O1052       O  0.82585249  0.54042866  0.02967112    -0.79500
Zn1053     Zn  0.76783654  0.53490971  0.96049565     1.55700
O1054       O  0.74794082  0.93777090  0.97536086    -0.80900
Cd1055     Cd  0.78510676  0.50349775  0.04627602     1.59700
Cd1056     Cd  0.71968982  0.50111198  0.04616963     1.59600
O1057       O  0.77583489  0.50563474  0.12150079    -0.80900
O1058       O  0.75210760  0.50162595  0.00368871    -1.91400
Cd1059     Cd  0.72883213  0.96346460  0.96250461     1.59900
O1060       O  0.73199390  0.50367824  0.12113518    -0.80800
O1061       O  0.73142252  0.97176280  0.88689020    -0.79500
C1062       C  0.73171263  0.56073590  0.00733927     0.83100
C1063       C  0.83201540  0.55983304  0.99652726     0.82700
O1064       O  0.75863959  0.52278474  0.88756938    -0.78400
C1065       C  0.76892742  0.94032325  0.00366387     0.83500
O1066       O  0.75177128  0.56141471  0.97915749    -0.78500
C1067       C  0.75177215  0.00321483  0.14545998     0.83700
C1068       C  0.66704836  0.94168624  0.00887778     0.84000
O1069       O  0.67577622  0.96426329  0.03831533    -0.80900
O1070       O  0.74683115  0.94124582  0.53381399    -0.78400
C1071       C  0.74410899  0.99970505  0.64575647     0.82600
O1072       O  0.67520484  0.96431829  0.46645286    -0.79600
O1073       O  0.75040128  0.56259478  0.53198133    -0.81000
O1074       O  0.82240922  0.53869029  0.47469033    -0.80800
O1075       O  0.78253308  0.96153804  0.47733765    -0.79500
Zn1076     Zn  0.72845009  0.96614159  0.54534814     1.55700
O1077       O  0.81107873  0.56071979  0.53632122    -0.80900
Cd1078     Cd  0.77952132  0.99919811  0.46228584     1.59700
Cd1079     Cd  0.71674053  0.00185395  0.46039296     1.59600
O1080       O  0.77080415  0.50040747  0.38606650    -0.80900
O1081       O  0.74738878  0.99991760  0.50396731    -1.91400
Cd1082     Cd  0.76670514  0.53553550  0.54869938     1.59900
O1083       O  0.72872842  0.50200595  0.38591022    -0.80800
O1084       O  0.76026757  0.52586510  0.62343398    -0.79500
C1085       C  0.66842664  0.94159257  0.49205268     0.83100
C1086       C  0.76658794  0.94059633  0.50657120     0.82700
O1087       O  0.73014204  0.97577109  0.61976462    -0.78400
C1088       C  0.82959477  0.56044303  0.50540270     0.83500
O1089       O  0.68665281  0.94060612  0.52271394    -0.78500
C1090       C  0.74982337  0.50135196  0.36268574     0.83700
C1091       C  0.73139265  0.56233220  0.50156575     0.84000
O1092       O  0.71531739  0.54005311  0.47280242    -0.80900
C1093       C  0.76767932  0.52340398  0.78335240    -0.09100
C1094       C  0.74541368  0.49870553  0.80732242     0.07100
C1095       C  0.73252785  0.96990450  0.77718040    -0.02900
C1096       C  0.73301886  0.97182768  0.72482985    -0.07300
C1097       C  0.74718479  0.50115636  0.70111254     0.06200
C1098       C  0.76889912  0.52484462  0.73108946    -0.02400
Br1099     Br  0.80211346  0.55918932  0.70419199    -0.02000
H1100       H  0.78488287  0.54158884  0.80546691     0.10100
H1101       H  0.72640884  0.95193846  0.70220443     0.08100
Br1102     Br  0.71962771  0.93135038  0.80284159    -0.02500
C1103       C  0.77609418  0.01046853  0.28302251    -0.09100
C1104       C  0.75044788  0.50237756  0.30693215     0.07100
C1105       C  0.72456472  0.49280792  0.27708652    -0.02900
C1106       C  0.72660399  0.49447129  0.22479683    -0.07300
C1107       C  0.75399282  0.50556471  0.20059727     0.06200
C1108       C  0.77786300  0.01208342  0.23062912    -0.02400
Br1109     Br  0.81681659  0.02868786  0.20269899    -0.02000
H1110       H  0.79631659  0.01802756  0.30481383     0.10100
H1111       H  0.70635675  0.48639868  0.20286266     0.08100
Br1112     Br  0.68532871  0.47573215  0.30411868    -0.02500
C1113       C  0.58634948  0.88432003  0.48420346    -0.09100
C1114       C  0.58834302  0.85854251  0.47807842     0.07100
C1115       C  0.61630107  0.86096228  0.47097091    -0.02900
C1116       C  0.64174594  0.88850048  0.47403292    -0.07300
C1117       C  0.64011640  0.91415515  0.48333561     0.06200
C1118       C  0.61215246  0.91220211  0.48679167    -0.01200
Br1119     Br  0.60833698  0.94644650  0.49932687    -0.02000
H1120       H  0.56491550  0.88268314  0.48938955     0.10100
H1121       H  0.66314220  0.88985678  0.46987885     0.08100
Br1122     Br  0.62118112  0.82738866  0.45637069    -0.02500
C1123       C  0.85945839  0.61439069  0.51617080    -0.09100
C1124       C  0.85889697  0.58792620  0.50309679     0.07100
C1125       C  0.88537400  0.58931051  0.48652253    -0.02900
C1126       C  0.91154870  0.61689922  0.48357217    -0.07300
C1127       C  0.91184470  0.64331341  0.49701528     0.06200
C1128       C  0.88509611  0.64163755  0.51300944    -0.02400
Br1129     Br  0.88049989  0.67544492  0.52791173    -0.02000
H1130       H  0.83932760  0.61412420  0.52766506     0.10100
H1131       H  0.93179151  0.61765714  0.47141297     0.08100
Br1132     Br  0.88749418  0.55448226  0.46994415    -0.02500
C1133       C  0.98354575  0.73089120  0.71225598    -0.09100
C1134       C  0.00678304  0.75507042  0.68873823     0.07100
C1135       C  0.52922992  0.77784772  0.71899027    -0.02900
C1136       C  0.52780183  0.77610537  0.77145896    -0.07300
C1137       C  0.50427140  0.75204533  0.79493968     0.06200
C1138       C  0.98217085  0.72904053  0.76447957    -0.02400
Br1139     Br  0.95029989  0.69346592  0.79086074    -0.02000
H1140       H  0.96643111  0.71288679  0.68976130     0.10100
H1141       H  0.54490086  0.79405221  0.79404900     0.08100
Br1142     Br  0.56136515  0.81276218  0.69157371    -0.02500
C1143       C  0.51167833  0.73675895  0.21374688    -0.09100
C1144       C  0.99646714  0.74884393  0.18898017     0.07100
C1145       C  0.98117721  0.75989393  0.21795950    -0.02900
C1146       C  0.98175523  0.75901120  0.27039078    -0.07300
C1147       C  0.49713962  0.74709475  0.29514435     0.06200
C1148       C  0.51232723  0.73595560  0.26613461    -0.02400
Br1149     Br  0.53630619  0.72148518  0.29532333    -0.02000
H1150       H  0.52385113  0.72849412  0.19220298     0.10100
H1151       H  0.96975060  0.76743686  0.29201654     0.08100
Br1152     Br  0.95773307  0.77495263  0.18866571    -0.02500
C1153       C  0.62474928  0.90148654  0.05362625    -0.09100
C1154       C  0.63603908  0.91724126  0.00952754     0.07100
C1155       C  0.61949978  0.90623371  0.96440949    -0.02900
C1156       C  0.59337709  0.87884284  0.96301698    -0.07300
C1157       C  0.58299962  0.86217876  0.00636314     0.06200
C1158       C  0.59844035  0.87407566  0.05233125    -0.02400
Br1159     Br  0.58662855  0.85212709  0.11287837    -0.02000
H1160       H  0.63745475  0.90948521  0.08840169     0.10100
H1161       H  0.58154695  0.87013353  0.92761049     0.08100
Br1162     Br  0.63212286  0.92773919  0.90349725    -0.02500
C1163       C  0.89968831  0.62664211  0.94582670    -0.09100
C1164       C  0.91711401  0.63887386  0.98959335     0.07100
C1165       C  0.90828733  0.62233491  0.03389990    -0.02900
C1166       C  0.88137712  0.59556766  0.03448729    -0.07300
C1167       C  0.86282385  0.58468124  0.99169460     0.06200
C1168       C  0.87301830  0.59984365  0.94633087    -0.02400
Br1169     Br  0.85185358  0.58527032  0.88340268    -0.02000
H1170       H  0.90645690  0.63841079  0.91103523     0.10100
H1171       H  0.87413749  0.58412134  0.06950609     0.08100
Br1172     Br  0.93005062  0.63598230  0.09636571    -0.02500
C1173       C  0.74125280  0.88666870  0.51039383    -0.09100
C1174       C  0.76823395  0.91314555  0.50678722     0.07100
C1175       C  0.79478416  0.91209684  0.50370303    -0.02900
C1176       C  0.79383875  0.88474659  0.50568586    -0.07300
C1177       C  0.76670297  0.85837728  0.51068093     0.06200
C1178       C  0.74017498  0.85959375  0.51183115    -0.02400
Br1179     Br  0.70126404  0.82512844  0.51139006    -0.02000
H1180       H  0.72052355  0.88692373  0.51114931     0.10100
H1181       H  0.81434903  0.88412956  0.50417487     0.08100
Br1182     Br  0.83271858  0.94716721  0.49959156    -0.02500
C1183       C  0.75801000  0.61637608  0.50332099    -0.09100
C1184       C  0.73071872  0.59015040  0.49778766     0.07100
C1185       C  0.70478638  0.59179634  0.48927404    -0.02900
C1186       C  0.70652779  0.61953042  0.48900677    -0.07300
C1187       C  0.73383475  0.64560913  0.49700126     0.06200
C1188       C  0.75985137  0.64378677  0.50259724    -0.02400
Br1189     Br  0.79902977  0.67781568  0.50679535    -0.02000
H1190       H  0.77835142  0.61561860  0.50790078     0.10100
H1191       H  0.68644375  0.62068584  0.48405022     0.08100
Br1192     Br  0.66651596  0.55720610  0.48105453    -0.02500
C1193       C  0.59834353  0.72115916  0.44691144    -0.09100
C1194       C  0.58292945  0.71920696  0.49117872     0.07100
C1195       C  0.59427304  0.71592335  0.53716331    -0.02900
C1196       C  0.62165967  0.71694738  0.53889274    -0.07300
C1197       C  0.63816739  0.72097323  0.49521511     0.06200
C1198       C  0.62585391  0.72219107  0.44856928    -0.02400
Br1199     Br  0.64727865  0.72932520  0.38702443    -0.02000
H1200       H  0.59008596  0.72414766  0.41141574     0.10100
H1201       H  0.63060221  0.71560949  0.57490181     0.08100
Br1202     Br  0.57342380  0.71072433  0.59891600    -0.02500
C1203       C  0.88155399  0.79209953  0.47146448    -0.09100
C1204       C  0.86303137  0.77921266  0.51277459     0.07100
C1205       C  0.87322394  0.76799083  0.55108902    -0.02900
C1206       C  0.89988709  0.76798569  0.54592095    -0.07300
C1207       C  0.91738538  0.77872058  0.50304660     0.06200
C1208       C  0.90844655  0.79195856  0.46621072    -0.02400
Br1209     Br  0.93054620  0.80867274  0.40649379    -0.02000
H1210       H  0.87445127  0.80108473  0.44174034     0.10100
H1211       H  0.90651088  0.75856351  0.57562657     0.08100
Br1212     Br  0.85226723  0.75165507  0.61189424    -0.02500
C1213       C  0.77232101  0.75318428  0.78783582    -0.09100
C1214       C  0.74598564  0.74598318  0.81295952     0.07100
C1215       C  0.72050338  0.73976299  0.78457155    -0.02900
C1216       C  0.72187852  0.74103454  0.73204755    -0.07300
C1217       C  0.74823340  0.74805210  0.70680734     0.06200
C1218       C  0.77362654  0.75411104  0.73544341    -0.02400
Br1219     Br  0.81140152  0.76607523  0.70600870    -0.02000
H1220       H  0.79216709  0.75832401  0.80922547     0.10100
H1221       H  0.70218574  0.73649511  0.71077777     0.08100
Br1222     Br  0.68393523  0.73147320  0.81559879    -0.02500
C1223       C  0.76323005  0.78125835  0.23373964    -0.09100
C1224       C  0.75330378  0.75452269  0.20673923     0.07100
C1225       C  0.74402006  0.72838779  0.23307337    -0.02900
C1226       C  0.74487104  0.72935571  0.28552034    -0.07300
C1227       C  0.75514243  0.75610811  0.31281464     0.06200
C1228       C  0.76445677  0.78234122  0.28633629    -0.02400
Br1229     Br  0.77727397  0.81993293  0.31941142    -0.02000
H1230       H  0.77016967  0.80145034  0.21375613     0.10100
H1231       H  0.73736945  0.70895301  0.30513290     0.08100
Br1232     Br  0.72807717  0.69049271  0.19944612    -0.02500
C1233       C  0.78142985  0.87868341  0.04828925    -0.09100
C1234       C  0.77531060  0.86137657  0.00402360     0.07100
C1235       C  0.77048283  0.87194416  0.95887966    -0.02900
C1236       C  0.77011800  0.89854593  0.95925107    -0.07300
C1237       C  0.77485633  0.91531024  0.00395297     0.06200
C1238       C  0.78162840  0.90561495  0.04857283    -0.02400
Br1239     Br  0.78835359  0.92633904  0.11208399    -0.02000
H1240       H  0.78507064  0.87068639  0.08325828     0.10100
H1241       H  0.76495989  0.90561900  0.92459572     0.08100
Br1242     Br  0.76086750  0.84937420  0.89681334    -0.02500
C1243       C  0.70326131  0.58786692  0.00003894    -0.09100
C1244       C  0.72963879  0.58788342  0.01177866     0.07100
C1245       C  0.75517416  0.61476461  0.02499230    -0.02900
C1246       C  0.75432622  0.64097528  0.02535419    -0.07300
C1247       C  0.72838963  0.64152738  0.01224023     0.06200
C1248       C  0.70250106  0.61447589  0.99974062    -0.02400
Br1249     Br  0.66551951  0.61229934  0.98333851    -0.02000
H1250       H  0.68348344  0.56728612  0.98985109     0.10100
H1251       H  0.77453837  0.66127129  0.03507678     0.08100
Br1252     Br  0.79201312  0.61705062  0.04391865    -0.02500
C1253       C  0.62645996  0.72323291  0.95994635    -0.09100
C1254       C  0.63928636  0.72567463  0.00752590     0.07100
C1255       C  0.62438909  0.72723893  0.05070268    -0.02900
C1256       C  0.59792214  0.72778102  0.04557890    -0.07300
C1257       C  0.58626969  0.72751118  0.99793032     0.06200
C1258       C  0.60032068  0.72448411  0.95483161    -0.02400
Br1259     Br  0.58476048  0.72197140  0.88838074    -0.02000
H1260       H  0.63763943  0.72195406  0.92644274     0.10100
H1261       H  0.58712880  0.72983687  0.07901173     0.08100
Br1262     Br  0.63922691  0.72894970  0.11750595    -0.02500
C1263       C  0.88325248  0.79537589  0.01617454    -0.09100
C1264       C  0.85696539  0.77086307  0.99835063     0.07100
C1265       C  0.85785337  0.74674854  0.97585195    -0.02900
C1266       C  0.88468919  0.74703959  0.97230971    -0.07300
C1267       C  0.91121217  0.77099504  0.99155960     0.06200
C1268       C  0.91035595  0.79561286  0.01325654    -0.02400
Br1269     Br  0.94501982  0.83029856  0.03881796    -0.02000
H1270       H  0.88258647  0.81404967  0.03335826     0.10100
H1271       H  0.88448241  0.72781484  0.95561503     0.08100
Br1272     Br  0.82274174  0.71262362  0.94959982    -0.02500
loop_ 
_geom_bond_atom_site_label_1 
_geom_bond_atom_site_label_2 
_geom_bond_distance 
_geom_bond_site_symmetry_2 
_ccdc_geom_bond_type 
O1           C17   1.275       .  A
O1           Zn7   2.011       .  S
C2           O18   1.273       .  A
C2           O15   1.273       .  A
C2          C270   1.473       .  S
O3           C16   1.277   1_556  A
O3          Cd10   2.094       .  S
O4           C22   1.275       .  A
O4          Cd13   2.067       .  S
O5           C19   1.275   1_556  A
O5           Cd9   2.077       .  S
O6           C17   1.274   1_556  A
O6           Cd9   2.070       .  S
Zn7          O18   2.018       .  S
Zn7          O20   2.010       .  S
Zn7          O12   1.941       .  S
O8           C19   1.274       .  A
O8          Cd13   2.069       .  S
Cd9          O11   2.065       .  S
Cd9          O12   2.007   1_556  S
Cd10         O14   2.084       .  S
Cd10         O23   2.083       .  S
Cd10         O12   2.013   1_556  S
O11          C21   1.274       .  A
O12         Cd13   1.997       .  S
Cd13         O15   2.070       .  S
O14          C21   1.276       .  A
C16          O20   1.272       .  A
C16         C293   1.476       .  S
C17         C310   1.476   1_554  S
C19         C280   1.478       .  S
C21         C260   1.481       .  S
C22          O23   1.278   1_554  A
C22         C300   1.482       .  S
O24          C40   1.269       .  A
O24         Zn30   1.996       .  S
C25          O41   1.273       .  A
C25          O38   1.273       .  A
C25         C263   1.478       .  S
O26          C39   1.275       .  A
O26         Cd33   2.084       .  S
O27          C45   1.274       .  A
O27         Cd36   2.057       .  S
O28          C42   1.278       .  A
O28         Cd32   2.093       .  S
O29          C40   1.279       .  A
O29         Cd32   2.109       .  S
Zn30         O41   2.015       .  S
Zn30         O43   1.981       .  S
Zn30         O35   1.920       .  S
O31          C42   1.274       .  A
O31         Cd36   2.050       .  S
Cd32         O34   2.078       .  S
Cd32         O35   2.023       .  S
Cd33         O37   2.073       .  S
Cd33         O46   2.096       .  S
Cd33         O35   2.020       .  S
O34          C44   1.276       .  A
O35         Cd36   1.985       .  S
Cd36         O38   2.075       .  S
O37          C44   1.277       .  A
C39          O43   1.271       .  A
C39         C233   1.472       .  S
C40         C250   1.498       .  S
C42         C223   1.478       .  S
C44         C273   1.485       .  S
C45          O46   1.276       .  A
C45         C243   1.485       .  S
O47          C63   1.273   1_556  A
O47         Zn53   2.012       .  S
C48          O64   1.276       .  A
C48         O697   1.271   1_455  A
C48         C183   1.491       .  S
O49          C62   1.276       .  A
O49         Cd56   2.092       .  S
O50          C68   1.273       .  A
O50         Cd59   2.059       .  S
O51          C65   1.276   1_554  A
O51        Cd691   2.096       .  S
O52          C63   1.275       .  A
O52         Cd55   2.079   1_455  S
Zn53         O64   2.029       .  S
Zn53         O66   2.008       .  S
Zn53         O58   1.937       .  S
O54          C65   1.275       .  A
O54         Cd59   2.062       .  S
Cd55        O687   2.096       .  S
Cd55        O693   2.067       .  S
Cd55         O58   2.009   1_654  S
Cd56        O696   2.072   1_455  S
Cd56        O705   2.086   1_455  S
Cd56         O58   2.016   1_554  S
O57          C67   1.276       .  A
O57        Cd691   2.067       .  S
O58        Cd695   1.985   1_455  S
Cd59         O61   2.056       .  S
Cd59        O694   1.985       .  S
O60          C67   1.274       .  A
O60        Cd692   2.072       .  S
O61         C684   1.271       .  A
C62          O66   1.275   1_554  A
C62         C203   1.484       .  S
C63         C303   1.475       .  S
C65         C210   1.494       .  S
C67         C190   1.484       .  S
C68          O69   1.277   1_556  A
C68         C313   1.477       .  S
O69        Cd692   2.086       .  S
O70          C86   1.273       .  A
O70         Zn76   2.007       .  S
C71          O87   1.274       .  A
C71          O84   1.277       .  A
C71         C253   1.501       .  S
O72          C85   1.277       .  A
O72         Cd79   2.099       .  S
O73          C91   1.277       .  A
O73        Cd718   2.071       .  S
O74          C88   1.273       .  A
O74         Cd78   2.046       .  S
O75         C722   1.271       .  A
O75         Cd78   2.068       .  S
Zn76         O87   2.002       .  S
Zn76         O89   1.983       .  S
Zn76         O81   1.914       .  S
O77          C88   1.277       .  A
O77        Cd718   2.094   1_455  S
Cd78         O80   2.054       .  S
Cd78        O717   1.980   1_455  S
Cd79        O719   2.098       .  S
Cd79        O728   2.066       .  S
Cd79         O81   2.021       .  S
O80          C90   1.273       .  A
O81         Cd82   2.020       .  S
O81        Cd714   1.980       .  S
Cd82         O84   2.105       .  S
Cd82        O709   2.071       .  S
Cd82        O713   2.094       .  S
O83          C90   1.277       .  A
O83        Cd715   2.098   1_455  S
C85          O89   1.270       .  A
C85         C173   1.486       .  S
C86         O711   1.271       .  A
C86         C180   1.491       .  S
C88         C160   1.479       .  S
C90         C240   1.481       .  S
C91          O92   1.275       .  A
C91         C193   1.482   1_655  S
O92        Cd715   2.066       .  S
O93         C109   1.271       .  A
O93         Zn99   2.000       .  S
C94         O110   1.274   1_565  A
C94         O425   1.270       .  A
C94         C140   1.489       .  S
O95         C108   1.278       .  A
O95        Cd102   2.102       .  S
O96         C114   1.272   1_556  A
O96        Cd105   2.047       .  S
O97         C111   1.276       .  A
O97        Cd419   2.089       .  S
O98         C109   1.278   1_554  A
O98        Cd101   2.100       .  S
Zn99        O110   2.012       .  S
Zn99        O112   2.002       .  S
Zn99        O104   1.930   1_556  S
O100        C111   1.273   1_556  A
O100       Cd105   2.055       .  S
Cd101       O103   2.076       .  S
Cd101       O415   2.091   1_545  S
Cd101       O104   2.018       .  S
Cd102       O106   2.071       .  S
Cd102       O433   2.104   1_545  S
Cd102       O104   2.015       .  S
O103        C431   1.276       .  A
O104       Cd423   1.992   1_544  S
Cd105       O107   2.064       .  S
Cd105       O422   1.984   1_556  S
O106        C431   1.277       .  A
O107        C412   1.272       .  A
C108        O112   1.273   1_554  A
C108        C290   1.492       .  S
C109        C213   1.491       .  S
C111        C283   1.483       .  S
C113        O421   1.276       .  A
C113        O424   1.278       .  A
C113        C471   1.489       .  S
C114        O115   1.278       .  A
C114        C200   1.482       .  S
O115       Cd420   2.105       .  S
O116        C132   1.271       .  A
O116       Zn122   1.983       .  S
C117        O133   1.274       .  A
C117        O448   1.270       .  A
C117        C461   1.485       .  S
O118        C131   1.276       .  A
O118       Cd125   2.096       .  S
O119        C137   1.272       .  A
O119       Cd128   2.040       .  S
O120        C134   1.276       .  A
O120       Cd442   2.098   1_545  S
O121        C132   1.278       .  A
O121       Cd124   2.098       .  S
Zn122       O133   2.027       .  S
Zn122       O135   1.985       .  S
Zn122       O127   1.921       .  S
O123        C134   1.273       .  A
O123       Cd128   2.038       .  S
Cd124       O438   2.105       .  S
Cd124       O444   2.081       .  S
Cd124       O127   2.024       .  S
Cd125       O447   2.066       .  S
Cd125       O456   2.090       .  S
Cd125       O127   2.022       .  S
O126        C136   1.277       .  A
O126       Cd442   2.077       .  S
O127       Cd446   1.967       .  S
Cd128       O130   2.055       .  S
Cd128       O445   1.966   1_545  S
O129        C136   1.274   1_545  A
O129       Cd443   2.064       .  S
O130        C435   1.270   1_545  A
C131        O135   1.272       .  A
C131        C163   1.478       .  S
C132        C220   1.476       .  S
C134        C170   1.489       .  S
C136        C150   1.484   1_565  S
C137        O138   1.275       .  A
C137        C230   1.474       .  S
O138       Cd443   2.079       .  S
C139        C140   1.406   1_545  A
C139        C144   1.396       .  A
C139        H146   1.084       .  S
C140        C459   1.417       .  A
C141        C142   1.400       .  A
C141        C458   1.413       .  A
C141       Br148   1.922       .  S
C142        C461   1.406       .  A
C142        H147   1.084       .  S
C143        C435   1.487       .  S
C143        C144   1.415   1_565  A
C143        C460   1.406       .  A
C144       Br145   1.924       .  S
C149        C154   1.401       .  A
C149        C468   1.406       .  A
C149        H156   1.083       .  S
C150        C151   1.413   1_545  A
C150        C467   1.406       .  A
C151        C152   1.397       .  A
C151       Br158   1.923       .  S
C152        C153   1.406   1_565  A
C152        H157   1.083       .  S
C153        C431   1.487       .  S
C153        C472   1.415       .  A
C154        C471   1.415       .  A
C154       Br155   1.922       .  S
C159        C160   1.409       .  A
C159        C164   1.409       .  A
C159        H166   1.083       .  S
C160        C161   1.411       .  A
C161        C162   1.389       .  A
C161       Br168   1.926       .  S
C162        C163   1.402       .  A
C162        H167   1.085       .  S
C163        C164   1.410       .  A
C164       Br165   1.917       .  S
C169        C170   1.405       .  A
C169        C174   1.388       .  A
C169        H176   1.084       .  S
C170        C171   1.415       .  A
C171        C172   1.409       .  A
C171       Br178   1.919       .  S
C172        C173   1.409       .  A
C172        H177   1.083       .  S
C173        C174   1.415       .  A
C174       Br175   1.929       .  S
C179        C180   1.406       .  A
C179        C184   1.396       .  A
C179        H186   1.083       .  S
C180        C817   1.417       .  A
C181        C182   1.401       .  A
C181        C816   1.417       .  A
C181       Br188   1.923       .  S
C182        C183   1.408       .  A
C182        H187   1.083       .  S
C183        C820   1.417   1_455  A
C184        C819   1.417       .  A
C184       Br185   1.925       .  S
C189        C194   1.398       .  A
C189        C826   1.406       .  A
C189        H196   1.084       .  S
C190        C191   1.414       .  A
C190        C825   1.406       .  A
C191        C192   1.397       .  A
C191       Br198   1.916       .  S
C192        C829   1.404       .  A
C192        H197   1.084       .  S
C193        C194   1.414       .  A
C193        C828   1.404   1_455  A
C194       Br195   1.923       .  S
C199        C200   1.407       .  A
C199        C204   1.409       .  A
C199        H206   1.083       .  S
C200        C201   1.412       .  A
C201        C202   1.392       .  A
C201       Br208   1.925       .  S
C202        C203   1.403       .  A
C202        H207   1.084       .  S
C203        C204   1.414       .  A
C204       Br205   1.917       .  S
C209        C210   1.406       .  A
C209        C214   1.396       .  A
C209        H216   1.084       .  S
C210        C211   1.417   1_556  A
C211        C212   1.406       .  A
C211       Br218   1.920       .  S
C212        C213   1.407   1_554  A
C212        H217   1.083       .  S
C213        C214   1.415       .  A
C214       Br215   1.925       .  S
C219        C220   1.402       .  A
C219        C224   1.391       .  A
C219        H226   1.084       .  S
C220        C221   1.409       .  A
C221        C222   1.407       .  A
C221       Br228   1.917       .  S
C222        C223   1.408       .  A
C222        H227   1.083       .  S
C223        C224   1.412       .  A
C224       Br225   1.925       .  S
C229        C230   1.402       .  A
C229        C234   1.387       .  A
C229        H236   1.084       .  S
C230        C231   1.411       .  A
C231        C232   1.406       .  A
C231       Br238   1.918       .  S
C232        C233   1.406       .  A
C232        H237   1.083       .  S
C233        C234   1.410       .  A
C234       Br235   1.925       .  S
C239        C240   1.405       .  A
C239        C244   1.406       .  A
C239        H246   1.084       .  S
C240        C241   1.410       .  A
C241        C242   1.395       .  A
C241       Br248   1.922       .  S
C242        C243   1.404       .  A
C242        H247   1.084       .  S
C243        C244   1.415       .  A
C244       Br245   1.919       .  S
C249        C250   1.409       .  A
C249        C254   1.409       .  A
C249        H256   1.083       .  S
C250        C251   1.419       .  A
C251        C252   1.396       .  A
C251       Br258   1.926       .  S
C252        C253   1.407       .  A
C252        H257   1.083       .  S
C253        C254   1.417       .  A
C254       Br255   1.920       .  S
C259        C260   1.404       .  A
C259        C264   1.397       .  A
C259        H266   1.085       .  S
C260        C261   1.413       .  A
C261        C262   1.403       .  A
C261       Br268   1.921       .  S
C262        C263   1.404       .  A
C262        H267   1.084       .  S
C263        C264   1.410       .  A
C264       Br265   1.920       .  S
C269        C270   1.401       .  A
C269        C274   1.400       .  A
C269        H276   1.085       .  S
C270        C271   1.407       .  A
C271        C272   1.399       .  A
C271       Br278   1.920       .  S
C272        C273   1.407       .  A
C272        H277   1.084       .  S
C273        C274   1.416       .  A
C274       Br275   1.921       .  S
C279        C280   1.404       .  A
C279        C284   1.402       .  A
C279        H286   1.084       .  S
C280        C281   1.409   1_554  A
C281        C282   1.398       .  A
C281       Br288   1.921       .  S
C282        C283   1.406   1_556  A
C282        H287   1.084       .  S
C283        C284   1.413       .  A
C284       Br285   1.921       .  S
C289        C290   1.410   1_556  A
C289        C294   1.399       .  A
C289        H296   1.083       .  S
C290        C291   1.416       .  A
C291        C292   1.404       .  A
C291       Br298   1.920       .  S
C292        C293   1.403       .  A
C292        H297   1.083       .  S
C293        C294   1.405   1_554  A
C294       Br295   1.920       .  S
C299        C300   1.406   1_556  A
C299        C304   1.400       .  A
C299        H306   1.084       .  S
C300        C301   1.414       .  A
C301        C302   1.399       .  A
C301       Br308   1.921       .  S
C302        C303   1.402       .  A
C302        H307   1.084       .  S
C303        C304   1.408   1_554  A
C304       Br305   1.919       .  S
C309        C310   1.402   1_554  A
C309        C314   1.396       .  A
C309        H316   1.084       .  S
C310        C311   1.412       .  A
C311        C312   1.401       .  A
C311       Br318   1.921       .  S
C312        C313   1.405       .  A
C312        H317   1.084       .  S
C313        C314   1.409   1_556  A
C314       Br315   1.913       .  S
O319        C335   1.272       .  A
O319       Zn325   1.998       .  S
C320        O336   1.273       .  A
C320        O333   1.273       .  A
C320        C588   1.473       .  S
O321        C334   1.277   1_556  A
O321       Cd328   2.107       .  S
O322        C340   1.274       .  A
O322       Cd331   2.057       .  S
O323        C337   1.276   1_556  A
O323       Cd327   2.083       .  S
O324        C335   1.274   1_556  A
O324       Cd327   2.074       .  S
Zn325       O336   2.015       .  S
Zn325       O338   1.991       .  S
Zn325       O330   1.928       .  S
O326        C337   1.274       .  A
O326       Cd331   2.065       .  S
Cd327       O329   2.067       .  S
Cd327       O330   2.007   1_556  S
Cd328       O332   2.083       .  S
Cd328       O341   2.078       .  S
Cd328       O330   2.021   1_556  S
O329        C339   1.275       .  A
O330       Cd331   1.994       .  S
Cd331       O333   2.068       .  S
O332        C339   1.276       .  A
C334        O338   1.272       .  A
C334        C611   1.490       .  S
C335        C628   1.464   1_554  S
C337        C598   1.476       .  S
C339        C578   1.478       .  S
C340        O341   1.277   1_554  A
C340        C618   1.473       .  S
O342        C358   1.271       .  A
O342       Zn348   2.002       .  S
C343        O359   1.274       .  A
C343        O356   1.275       .  A
C343        C581   1.484       .  S
O344        C357   1.275       .  A
O344       Cd351   2.080       .  S
O345        C363   1.275       .  A
O345       Cd354   2.072       .  S
O346        C360   1.277       .  A
O346       Cd350   2.086       .  S
O347        C358   1.278       .  A
O347       Cd350   2.102       .  S
Zn348       O359   2.028       .  S
Zn348       O361   1.988       .  S
Zn348       O353   1.925       .  S
O349        C360   1.274       .  A
O349       Cd354   2.054       .  S
Cd350       O352   2.078       .  S
Cd350       O353   2.024       .  S
Cd351       O355   2.061       .  S
Cd351       O364   2.083       .  S
Cd351       O353   2.013       .  S
O352        C362   1.275       .  A
O353       Cd354   1.989       .  S
Cd354       O356   2.077       .  S
O355        C362   1.274       .  A
C357        O361   1.272       .  A
C357        C551   1.474       .  S
C358        C568   1.494       .  S
C360        C541   1.478       .  S
C362        C591   1.480       .  S
C363        O364   1.275       .  A
C363        C561   1.482       .  S
O365        C381   1.275       .  A
O365       Zn371   2.023       .  S
C366        O382   1.276       .  A
C366       O1015   1.273   1_455  A
C366        C501   1.485       .  S
O367        C380   1.276       .  A
O367       Cd374   2.083   1_455  S
O368        C386   1.274       .  A
O368       Cd377   2.051       .  S
O369        C383   1.273   1_554  A
O369      Cd1009   2.077       .  S
O370        C381   1.273   1_554  A
O370       Cd373   2.058       .  S
Zn371       O382   2.034       .  S
Zn371       O384   2.030       .  S
Zn371       O376   1.947       .  S
O372        C383   1.275       .  A
O372       Cd377   2.070       .  S
Cd373      O1005   2.077   1_455  S
Cd373      O1011   2.061   1_455  S
Cd373       O376   2.004   1_554  S
Cd374      O1014   2.072       .  S
Cd374      O1023   2.083       .  S
Cd374       O376   2.012   1_654  S
O375        C385   1.274       .  A
O375      Cd1009   2.061       .  S
O376      Cd1013   1.986   1_455  S
Cd377       O379   2.060       .  S
Cd377      O1012   1.986       .  S
O378        C385   1.274       .  A
O378      Cd1010   2.072       .  S
O379       C1002   1.273       .  A
C380        O384   1.276   1_554  A
C380        C521   1.479       .  S
C381        C621   1.471       .  S
C383        C528   1.488       .  S
C385        C508   1.481       .  S
C386        O387   1.276   1_556  A
C386        C631   1.486       .  S
O387      Cd1010   2.083       .  S
O388        C404   1.273       .  A
O388       Zn394   2.008       .  S
C389        O405   1.274       .  A
C389        O402   1.275       .  A
C389        C571   1.495       .  S
O390        C403   1.279       .  A
O390       Cd397   2.110       .  S
O391        C409   1.276       .  A
O391      Cd1036   2.068       .  S
O392        C406   1.273       .  A
O392       Cd396   2.047       .  S
O393       C1040   1.272       .  A
O393       Cd396   2.071       .  S
Zn394       O405   2.001       .  S
Zn394       O407   1.982       .  S
Zn394       O399   1.916       .  S
O395        C406   1.275       .  A
O395      Cd1036   2.086   1_455  S
Cd396       O398   2.053       .  S
Cd396      O1035   1.986       .  S
Cd397      O1037   2.105       .  S
Cd397      O1046   2.080       .  S
Cd397       O399   2.024       .  S
O398        C408   1.273       .  A
O399      Cd1032   1.986       .  S
O399       Cd400   2.021       .  S
Cd400      O1027   2.068       .  S
Cd400      O1031   2.086       .  S
Cd400       O402   2.093       .  S
O401        C408   1.279       .  A
O401      Cd1033   2.105   1_455  S
C403        O407   1.269       .  A
C403        C491   1.488       .  S
C404       O1029   1.272       .  A
C404        C498   1.483       .  S
C406        C478   1.471       .  S
C408        C558   1.478       .  S
C409        O410   1.277       .  A
C409        C511   1.481       .  S
O410      Cd1033   2.080       .  S
O411        C427   1.271       .  A
O411       Zn417   1.999       .  S
C412        O428   1.274       .  A
C412        C458   1.482       .  S
O413        C426   1.278       .  A
O413       Cd420   2.104       .  S
O414        C432   1.273   1_556  A
O414       Cd423   2.056       .  S
O415        C429   1.277       .  A
O416        C427   1.277   1_554  A
O416       Cd419   2.094       .  S
Zn417       O428   2.010       .  S
Zn417       O430   1.994       .  S
Zn417       O422   1.924   1_556  S
O418        C429   1.275   1_556  A
O418       Cd423   2.062       .  S
Cd419       O421   2.075       .  S
Cd419       O422   2.015       .  S
Cd420       O424   2.077       .  S
Cd420       O422   2.020       .  S
Cd423       O425   2.061       .  S
C426        O430   1.272   1_554  A
C426        C608   1.477       .  S
C427        C531   1.486       .  S
C429        C601   1.484       .  S
C432        O433   1.278       .  A
C432        C518   1.478       .  S
O434        C450   1.272       .  A
O434       Zn440   1.979       .  S
C435        O451   1.274       .  A
O436        C449   1.274       .  A
O436       Cd443   2.083   1_565  S
O437        C455   1.272       .  A
O437       Cd446   2.034       .  S
O438        C452   1.277       .  A
O439        C450   1.278       .  A
O439       Cd442   2.098       .  S
Zn440       O451   2.024       .  S
Zn440       O453   1.985       .  S
Zn440       O445   1.916       .  S
O441        C452   1.273       .  A
O441       Cd446   2.041       .  S
Cd442       O445   2.022       .  S
Cd443       O445   2.014   1_545  S
O444        C454   1.278       .  A
Cd446       O448   2.052       .  S
O447        C454   1.274       .  A
C449        O453   1.271       .  A
C449        C481   1.470       .  S
C450        C538   1.479       .  S
C452        C488   1.489       .  S
C454        C468   1.487       .  S
C455        O456   1.276       .  A
C455        C548   1.477       .  S
C457        C458   1.403       .  A
C457        C462   1.396       .  A
C457        H464   1.084       .  S
C459        C460   1.400       .  A
C459       Br466   1.924       .  S
C460        H465   1.084       .  S
C461        C462   1.416       .  A
C462       Br463   1.924       .  S
C467        C472   1.401       .  A
C467        H474   1.083       .  S
C468        C469   1.415       .  A
C469        C470   1.398       .  A
C469       Br476   1.923       .  S
C470        C471   1.406       .  A
C470        H475   1.083       .  S
C472       Br473   1.922       .  S
C477        C478   1.407       .  A
C477        C482   1.406       .  A
C477        H484   1.083       .  S
C478        C479   1.408       .  A
C479        C480   1.389       .  A
C479       Br486   1.924       .  S
C480        C481   1.400       .  A
C480        H485   1.085       .  S
C481        C482   1.409       .  A
C482       Br483   1.917       .  S
C487        C488   1.403       .  A
C487        C492   1.389       .  A
C487        H494   1.084       .  S
C488        C489   1.413       .  A
C489        C490   1.411       .  A
C489       Br496   1.918       .  S
C490        C491   1.410       .  A
C490        H495   1.083       .  S
C491        C492   1.416       .  A
C492       Br493   1.928       .  S
C497        C498   1.404       .  A
C497        C502   1.396       .  A
C497        H504   1.084       .  S
C498       C1135   1.413       .  A
C499       C1134   1.413       .  A
C499        C500   1.402       .  A
C499       Br506   1.921       .  S
C500        C501   1.407       .  A
C500        H505   1.083       .  S
C501       C1138   1.414   1_455  A
C502       C1137   1.414       .  A
C502       Br503   1.923       .  S
C507       C1144   1.405   1_455  A
C507        C512   1.398       .  A
C507        H514   1.084       .  S
C508       C1143   1.405       .  A
C508        C509   1.413       .  A
C509        C510   1.399       .  A
C509       Br516   1.922       .  S
C510       C1147   1.405       .  A
C510        H515   1.084       .  S
C511       C1146   1.405       .  A
C511        C512   1.412   1_655  A
C512       Br513   1.922       .  S
C517        C518   1.404       .  A
C517        C522   1.405       .  A
C517        H524   1.083       .  S
C518        C519   1.409   1_554  A
C519        C520   1.399       .  A
C519       Br526   1.920       .  S
C520        C521   1.402   1_556  A
C520        H525   1.083       .  S
C521        C522   1.412       .  A
C522       Br523   1.920       .  S
C527        C528   1.405       .  A
C527        C532   1.398       .  A
C527        H534   1.084       .  S
C528        C529   1.417   1_556  A
C529        C530   1.403       .  A
C529       Br536   1.921       .  S
C530        C531   1.405   1_554  A
C530        H535   1.083       .  S
C531        C532   1.414       .  A
C532       Br533   1.923       .  S
C537        C538   1.403       .  A
C537        C542   1.389       .  A
C537        H544   1.084       .  S
C538        C539   1.410       .  A
C539        C540   1.407       .  A
C539       Br546   1.917       .  S
C540        C541   1.408       .  A
C540        H545   1.083       .  S
C541        C542   1.412       .  A
C542       Br543   1.927       .  S
C547        C548   1.403       .  A
C547        C552   1.388       .  A
C547        H554   1.084       .  S
C548        C549   1.411       .  A
C549        C550   1.406       .  A
C549       Br556   1.917       .  S
C550        C551   1.407       .  A
C550        H555   1.083       .  S
C551        C552   1.410       .  A
C552       Br553   1.926       .  S
C557        C558   1.403       .  A
C557        C562   1.404       .  A
C557        H564   1.084       .  S
C558        C559   1.409       .  A
C559        C560   1.398       .  A
C559       Br566   1.920       .  S
C560        C561   1.403       .  A
C560        H565   1.084       .  S
C561        C562   1.414       .  A
C562       Br563   1.920       .  S
C567        C568   1.409       .  A
C567        C572   1.409       .  A
C567        H574   1.083       .  S
C568        C569   1.415       .  A
C569        C570   1.393       .  A
C569       Br576   1.920       .  S
C570        C571   1.404       .  A
C570        H575   1.084       .  S
C571        C572   1.417       .  A
C572       Br573   1.920       .  S
C577        C578   1.402       .  A
C577        C582   1.398       .  A
C577        H584   1.085       .  S
C578        C579   1.410       .  A
C579        C580   1.402       .  A
C579       Br586   1.920       .  S
C580        C581   1.406       .  A
C580        H585   1.084       .  S
C581        C582   1.412       .  A
C582       Br583   1.915       .  S
C587        C588   1.403       .  A
C587        C592   1.401       .  A
C587        H594   1.085       .  S
C588        C589   1.408       .  A
C589        C590   1.396       .  A
C589       Br596   1.921       .  S
C590        C591   1.405       .  A
C590        H595   1.084       .  S
C591        C592   1.414       .  A
C592       Br593   1.921       .  S
C597        C598   1.403       .  A
C597        C602   1.402       .  A
C597        H604   1.084       .  S
C598        C599   1.408   1_554  A
C599        C600   1.399       .  A
C599       Br606   1.921       .  S
C600        C601   1.407   1_556  A
C600        H605   1.084       .  S
C601        C602   1.414       .  A
C602       Br603   1.920       .  S
C607        C608   1.405       .  A
C607        C612   1.410   1_554  A
C607        H614   1.083   1_554  S
C608        C609   1.407       .  A
C609        C610   1.392       .  A
C609       Br616   1.924       .  S
C610        C611   1.407       .  A
C610        H615   1.083       .  S
C611        C612   1.416   1_554  A
C612       Br613   1.918       .  S
C617        C618   1.404   1_556  A
C617        C622   1.399       .  A
C617        H624   1.084       .  S
C618        C619   1.410       .  A
C619        C620   1.397       .  A
C619       Br626   1.921       .  S
C620        C621   1.402   1_554  A
C620        H625   1.084       .  S
C621        C622   1.408       .  A
C622       Br623   1.919       .  S
C627        C628   1.401   1_554  A
C627        C632   1.405       .  A
C627        H634   1.084       .  S
C628        C629   1.403       .  A
C629        C630   1.391       .  A
C629       Br636   1.923       .  S
C630        C631   1.408       .  A
C630        H635   1.083       .  S
C631        C632   1.418   1_556  A
C632       Br633   1.919       .  S
O637        C653   1.275       .  A
O637       Zn643   2.011       .  S
C638        O654   1.273       .  A
C638        O651   1.273       .  A
C638        C906   1.473       .  S
O639        C652   1.277   1_556  A
O639       Cd646   2.094       .  S
O640        C658   1.275       .  A
O640       Cd649   2.067       .  S
O641        C655   1.275   1_556  A
O641       Cd645   2.077       .  S
O642        C653   1.274   1_556  A
O642       Cd645   2.070       .  S
Zn643       O654   2.018       .  S
Zn643       O656   2.010       .  S
Zn643       O648   1.941       .  S
O644        C655   1.274       .  A
O644       Cd649   2.069       .  S
Cd645       O647   2.065       .  S
Cd645       O648   2.007   1_556  S
Cd646       O650   2.084       .  S
Cd646       O659   2.083       .  S
Cd646       O648   2.013   1_556  S
O647        C657   1.274       .  A
O648       Cd649   1.997       .  S
Cd649       O651   2.070       .  S
O650        C657   1.276       .  A
C652        O656   1.272       .  A
C652        C929   1.476       .  S
C653        C946   1.476   1_554  S
C655        C916   1.478       .  S
C657        C896   1.481       .  S
C658        O659   1.278   1_554  A
C658        C936   1.482       .  S
O660        C676   1.269       .  A
O660       Zn666   1.996       .  S
C661        O677   1.273       .  A
C661        O674   1.273       .  A
C661        C899   1.478       .  S
O662        C675   1.275       .  A
O662       Cd669   2.085       .  S
O663        C681   1.274       .  A
O663       Cd672   2.057       .  S
O664        C678   1.278       .  A
O664       Cd668   2.093       .  S
O665        C676   1.279       .  A
O665       Cd668   2.109       .  S
Zn666       O677   2.015       .  S
Zn666       O679   1.981       .  S
Zn666       O671   1.920       .  S
O667        C678   1.274       .  A
O667       Cd672   2.050       .  S
Cd668       O670   2.079       .  S
Cd668       O671   2.023       .  S
Cd669       O673   2.073       .  S
Cd669       O682   2.096       .  S
Cd669       O671   2.020       .  S
O670        C680   1.276       .  A
O671       Cd672   1.985       .  S
Cd672       O674   2.075       .  S
O673        C680   1.277       .  A
C675        O679   1.271       .  A
C675        C869   1.472       .  S
C676        C886   1.498       .  S
C678        C859   1.478       .  S
C680        C909   1.485       .  S
C681        O682   1.276       .  A
C681        C879   1.485       .  S
O683        C699   1.273   1_556  A
O683       Zn689   2.012       .  S
C684        O700   1.276       .  A
C684        C819   1.491       .  S
O685        C698   1.276       .  A
O685       Cd692   2.092       .  S
O686        C704   1.273       .  A
O686       Cd695   2.059       .  S
O687        C701   1.276   1_554  A
O688        C699   1.275       .  A
O688       Cd691   2.079       .  S
Zn689       O700   2.029       .  S
Zn689       O702   2.008       .  S
Zn689       O694   1.937       .  S
O690        C701   1.275       .  A
O690       Cd695   2.062       .  S
Cd691       O694   2.009   1_554  S
Cd692       O694   2.016   1_554  S
O693        C703   1.276       .  A
Cd695       O697   2.056       .  S
O696        C703   1.274       .  A
C698        O702   1.275   1_554  A
C698        C839   1.484       .  S
C699        C939   1.475       .  S
C701        C846   1.494       .  S
C703        C826   1.484   1_655  S
C704        O705   1.277   1_556  A
C704        C949   1.477       .  S
O706        C722   1.273   1_655  A
O706       Zn712   2.007       .  S
C707        O723   1.274       .  A
C707        O720   1.277       .  A
C707        C889   1.501       .  S
O708        C721   1.277       .  A
O708       Cd715   2.099       .  S
O709        C727   1.277       .  A
O710        C724   1.273       .  A
O710       Cd714   2.046       .  S
O711       Cd714   2.068       .  S
Zn712       O723   2.002       .  S
Zn712       O725   1.983       .  S
Zn712       O717   1.914       .  S
O713        C724   1.277       .  A
Cd714       O716   2.054       .  S
Cd715       O717   2.021       .  S
O716        C726   1.273       .  A
O717       Cd718   2.020       .  S
Cd718       O720   2.105       .  S
O719        C726   1.277       .  A
C721        O725   1.270       .  A
C721        C809   1.486       .  S
C722        C816   1.491       .  S
C724        C796   1.479       .  S
C726        C876   1.481       .  S
C727        O728   1.275       .  A
C727        C829   1.482       .  S
O729        C745   1.271       .  A
O729       Zn735   2.000       .  S
C730        O746   1.274   1_565  A
C730       O1061   1.270       .  A
C730        C776   1.489       .  S
O731        C744   1.278       .  A
O731       Cd738   2.102       .  S
O732        C750   1.272   1_556  A
O732       Cd741   2.047       .  S
O733        C747   1.276       .  A
O733      Cd1055   2.089       .  S
O734        C745   1.278   1_554  A
O734       Cd737   2.100       .  S
Zn735       O746   2.012       .  S
Zn735       O748   2.002       .  S
Zn735       O740   1.930   1_556  S
O736        C747   1.273   1_556  A
O736       Cd741   2.055       .  S
Cd737      O1051   2.091   1_545  S
Cd737       O739   2.076       .  S
Cd737       O740   2.018       .  S
Cd738       O742   2.071       .  S
Cd738      O1069   2.104   1_545  S
Cd738       O740   2.015       .  S
O739       C1067   1.276       .  A
O740      Cd1059   1.992   1_544  S
Cd741       O743   2.064       .  S
Cd741      O1058   1.984   1_556  S
O742       C1067   1.277       .  A
O743       C1048   1.272       .  A
C744        O748   1.273   1_554  A
C744        C926   1.492       .  S
C745        C849   1.491       .  S
C747        C919   1.483       .  S
C749       O1057   1.276       .  A
C749       O1060   1.278       .  A
C749       C1107   1.489       .  S
C750        O751   1.278       .  A
C750        C836   1.482       .  S
O751      Cd1056   2.105       .  S
O752        C768   1.271       .  A
O752       Zn758   1.983       .  S
C753        O769   1.274       .  A
C753       O1084   1.270       .  A
C753       C1097   1.485       .  S
O754        C767   1.276       .  A
O754       Cd761   2.096       .  S
O755        C773   1.272       .  A
O755       Cd764   2.040       .  S
O756        C770   1.276       .  A
O756      Cd1078   2.098   1_545  S
O757        C768   1.278       .  A
O757       Cd760   2.098       .  S
Zn758       O769   2.027       .  S
Zn758       O771   1.985       .  S
Zn758       O763   1.921       .  S
O759        C770   1.273       .  A
O759       Cd764   2.038       .  S
Cd760      O1074   2.105       .  S
Cd760      O1080   2.081       .  S
Cd760       O763   2.024       .  S
Cd761      O1083   2.066       .  S
Cd761      O1092   2.090       .  S
Cd761       O763   2.022       .  S
O762        C772   1.277       .  A
O762      Cd1078   2.077       .  S
O763      Cd1082   1.967       .  S
Cd764       O766   2.055       .  S
Cd764      O1081   1.966   1_545  S
O765        C772   1.274   1_545  A
O765      Cd1079   2.064       .  S
O766       C1071   1.270   1_545  A
C767        O771   1.272       .  A
C767        C799   1.478       .  S
C768        C856   1.476       .  S
C770        C806   1.489       .  S
C772        C786   1.484   1_565  S
C773        O774   1.275       .  A
C773        C866   1.474       .  S
O774      Cd1079   2.079       .  S
C775        C776   1.406   1_545  A
C775        C780   1.396       .  A
C775        H782   1.084       .  S
C776       C1095   1.417       .  A
C777       C1094   1.413       .  A
C777        C778   1.400       .  A
C777       Br784   1.922       .  S
C778       C1097   1.406       .  A
C778        H783   1.084       .  S
C779       C1071   1.487       .  S
C779       C1096   1.406       .  A
C779        C780   1.415   1_565  A
C780       Br781   1.924       .  S
C785       C1104   1.406       .  A
C785        C790   1.401       .  A
C785        H792   1.083       .  S
C786       C1103   1.406       .  A
C786        C787   1.413   1_545  A
C787        C788   1.397       .  A
C787       Br794   1.923       .  S
C788        C789   1.406   1_565  A
C788        H793   1.083       .  S
C789       C1067   1.487       .  S
C789       C1108   1.415       .  A
C790       C1107   1.415       .  A
C790       Br791   1.922       .  S
C795        C796   1.409       .  A
C795        C800   1.409       .  A
C795        H802   1.083       .  S
C796        C797   1.411       .  A
C797        C798   1.389       .  A
C797       Br804   1.926       .  S
C798        C799   1.402       .  A
C798        H803   1.085       .  S
C799        C800   1.410       .  A
C800       Br801   1.917       .  S
C805        C806   1.405       .  A
C805        C810   1.388       .  A
C805        H812   1.084       .  S
C806        C807   1.415       .  A
C807        C808   1.409       .  A
C807       Br814   1.919       .  S
C808        C809   1.409       .  A
C808        H813   1.083       .  S
C809        C810   1.415       .  A
C810       Br811   1.929       .  S
C815        C816   1.406   1_655  A
C815        C820   1.396       .  A
C815        H822   1.083       .  S
C817        C818   1.401       .  A
C817       Br824   1.923       .  S
C818        C819   1.408       .  A
C818        H823   1.083       .  S
C820       Br821   1.925       .  S
C825        C830   1.398       .  A
C825        H832   1.084       .  S
C826        C827   1.414   1_455  A
C827        C828   1.397       .  A
C827       Br834   1.916       .  S
C828        H833   1.084       .  S
C829        C830   1.414       .  A
C830       Br831   1.923       .  S
C835        C836   1.407       .  A
C835        C840   1.409       .  A
C835        H842   1.083       .  S
C836        C837   1.412       .  A
C837        C838   1.392       .  A
C837       Br844   1.925       .  S
C838        C839   1.403       .  A
C838        H843   1.084       .  S
C839        C840   1.414       .  A
C840       Br841   1.917       .  S
C845        C846   1.406       .  A
C845        C850   1.396       .  A
C845        H852   1.084       .  S
C846        C847   1.417   1_556  A
C847        C848   1.406       .  A
C847       Br854   1.920       .  S
C848        C849   1.407   1_554  A
C848        H853   1.083       .  S
C849        C850   1.415       .  A
C850       Br851   1.925       .  S
C855        C856   1.402       .  A
C855        C860   1.391       .  A
C855        H862   1.084       .  S
C856        C857   1.409       .  A
C857        C858   1.407       .  A
C857       Br864   1.917       .  S
C858        C859   1.408       .  A
C858        H863   1.083       .  S
C859        C860   1.412       .  A
C860       Br861   1.925       .  S
C865        C866   1.402       .  A
C865        C870   1.387       .  A
C865        H872   1.084       .  S
C866        C867   1.411       .  A
C867        C868   1.406       .  A
C867       Br874   1.918       .  S
C868        C869   1.406       .  A
C868        H873   1.083       .  S
C869        C870   1.410       .  A
C870       Br871   1.925       .  S
C875        C876   1.405       .  A
C875        C880   1.406       .  A
C875        H882   1.084       .  S
C876        C877   1.410       .  A
C877        C878   1.395       .  A
C877       Br884   1.922       .  S
C878        C879   1.404       .  A
C878        H883   1.084       .  S
C879        C880   1.415       .  A
C880       Br881   1.919       .  S
C885        C886   1.409       .  A
C885        C890   1.409       .  A
C885        H892   1.083       .  S
C886        C887   1.419       .  A
C887        C888   1.396       .  A
C887       Br894   1.926       .  S
C888        C889   1.407       .  A
C888        H893   1.083       .  S
C889        C890   1.417       .  A
C890       Br891   1.920       .  S
C895        C896   1.404       .  A
C895        C900   1.397       .  A
C895        H902   1.085       .  S
C896        C897   1.413       .  A
C897        C898   1.403       .  A
C897       Br904   1.921       .  S
C898        C899   1.404       .  A
C898        H903   1.084       .  S
C899        C900   1.410       .  A
C900       Br901   1.920       .  S
C905        C906   1.401       .  A
C905        C910   1.401       .  A
C905        H912   1.085       .  S
C906        C907   1.407       .  A
C907        C908   1.399       .  A
C907       Br914   1.920       .  S
C908        C909   1.407       .  A
C908        H913   1.084       .  S
C909        C910   1.416       .  A
C910       Br911   1.921       .  S
C915        C916   1.404       .  A
C915        C920   1.402       .  A
C915        H922   1.084       .  S
C916        C917   1.409   1_554  A
C917        C918   1.398       .  A
C917       Br924   1.921       .  S
C918        C919   1.406   1_556  A
C918        H923   1.084       .  S
C919        C920   1.413       .  A
C920       Br921   1.921       .  S
C925        C926   1.410   1_556  A
C925        C930   1.399       .  A
C925        H932   1.083       .  S
C926        C927   1.416       .  A
C927        C928   1.404       .  A
C927       Br934   1.920       .  S
C928        C929   1.403       .  A
C928        H933   1.083       .  S
C929        C930   1.405   1_554  A
C930       Br931   1.920       .  S
C935        C936   1.406   1_556  A
C935        C940   1.400       .  A
C935        H942   1.084       .  S
C936        C937   1.414       .  A
C937        C938   1.399       .  A
C937       Br944   1.921       .  S
C938        C939   1.402       .  A
C938        H943   1.084       .  S
C939        C940   1.408   1_554  A
C940       Br941   1.919       .  S
C945        C946   1.402   1_554  A
C945        C950   1.396       .  A
C945        H952   1.084       .  S
C946        C947   1.412       .  A
C947        C948   1.401       .  A
C947       Br954   1.921       .  S
C948        C949   1.405       .  A
C948        H953   1.084       .  S
C949        C950   1.409   1_556  A
C950       Br951   1.913       .  S
O955        C971   1.272       .  A
O955       Zn961   1.998       .  S
C956        O972   1.273       .  A
C956        O969   1.273       .  A
C956       C1224   1.473       .  S
O957        C970   1.277   1_556  A
O957       Cd964   2.107       .  S
O958        C976   1.274       .  A
O958       Cd967   2.057       .  S
O959        C973   1.276   1_556  A
O959       Cd963   2.083       .  S
O960        C971   1.274   1_556  A
O960       Cd963   2.074       .  S
Zn961       O972   2.015       .  S
Zn961       O974   1.991       .  S
Zn961       O966   1.928       .  S
O962        C973   1.274       .  A
O962       Cd967   2.065       .  S
Cd963       O965   2.067       .  S
Cd963       O966   2.007   1_556  S
Cd964       O968   2.083       .  S
Cd964       O977   2.078       .  S
Cd964       O966   2.021   1_556  S
O965        C975   1.275       .  A
O966       Cd967   1.993       .  S
Cd967       O969   2.068       .  S
O968        C975   1.276       .  A
C970        O974   1.272       .  A
C970       C1247   1.490       .  S
C971       C1264   1.464   1_554  S
C973       C1234   1.476       .  S
C975       C1214   1.478       .  S
C976        O977   1.277   1_554  A
C976       C1254   1.473       .  S
O978        C994   1.271       .  A
O978       Zn984   2.002       .  S
C979        O995   1.274       .  A
C979        O992   1.275       .  A
C979       C1217   1.484       .  S
O980        C993   1.275       .  A
O980       Cd987   2.080       .  S
O981        C999   1.275       .  A
O981       Cd990   2.072       .  S
O982        C996   1.277       .  A
O982       Cd986   2.086       .  S
O983        C994   1.278       .  A
O983       Cd986   2.102       .  S
Zn984       O995   2.028       .  S
Zn984       O997   1.988       .  S
Zn984       O989   1.925       .  S
O985        C996   1.274       .  A
O985       Cd990   2.054       .  S
Cd986       O988   2.078       .  S
Cd986       O989   2.024       .  S
Cd987       O991   2.061       .  S
Cd987      O1000   2.083       .  S
Cd987       O989   2.013       .  S
O988        C998   1.275       .  A
O989       Cd990   1.989       .  S
Cd990       O992   2.077       .  S
O991        C998   1.274       .  A
C993        O997   1.272       .  A
C993       C1187   1.474       .  S
C994       C1204   1.494       .  S
C996       C1177   1.478       .  S
C998       C1227   1.480       .  S
C999       O1000   1.275       .  A
C999       C1197   1.482       .  S
O1001      C1017   1.275       .  A
O1001     Zn1007   2.023       .  S
C1002      O1018   1.276       .  A
C1002      C1137   1.485       .  S
O1003      C1016   1.276       .  A
O1003     Cd1010   2.083       .  S
O1004      C1022   1.274       .  A
O1004     Cd1013   2.051       .  S
O1005      C1019   1.273   1_554  A
O1006      C1017   1.273   1_554  A
O1006     Cd1009   2.058       .  S
Zn1007     O1018   2.034       .  S
Zn1007     O1020   2.030       .  S
Zn1007     O1012   1.947       .  S
O1008      C1019   1.275       .  A
O1008     Cd1013   2.070       .  S
Cd1009     O1012   2.004   1_554  S
Cd1010     O1012   2.012   1_554  S
O1011      C1021   1.274       .  A
Cd1013     O1015   2.060       .  S
O1014      C1021   1.274       .  A
C1016      O1020   1.276   1_554  A
C1016      C1157   1.479       .  S
C1017      C1257   1.471       .  S
C1019      C1164   1.488       .  S
C1021      C1144   1.481       .  S
C1022      O1023   1.276   1_556  A
C1022      C1267   1.486       .  S
O1024      C1040   1.273   1_655  A
O1024     Zn1030   2.008       .  S
C1025      O1041   1.274       .  A
C1025      O1038   1.275       .  A
C1025      C1207   1.495       .  S
O1026      C1039   1.279       .  A
O1026     Cd1033   2.110       .  S
O1027      C1045   1.276       .  A
O1028      C1042   1.273       .  A
O1028     Cd1032   2.047       .  S
O1029     Cd1032   2.071       .  S
Zn1030     O1041   2.001       .  S
Zn1030     O1043   1.982       .  S
Zn1030     O1035   1.916   1_655  S
O1031      C1042   1.275       .  A
Cd1032     O1034   2.053       .  S
Cd1033     O1035   2.024   1_655  S
O1034      C1044   1.273       .  A
O1035     Cd1036   2.021   1_455  S
Cd1036     O1038   2.093       .  S
O1037      C1044   1.279       .  A
C1039      O1043   1.269       .  A
C1039      C1127   1.488       .  S
C1040      C1134   1.483       .  S
C1042      C1114   1.471       .  S
C1044      C1194   1.478       .  S
C1045      O1046   1.277       .  A
C1045      C1147   1.481       .  S
O1047      C1063   1.271       .  A
O1047     Zn1053   1.999       .  S
C1048      O1064   1.274       .  A
C1048      C1094   1.482       .  S
O1049      C1062   1.278       .  A
O1049     Cd1056   2.104       .  S
O1050      C1068   1.273   1_556  A
O1050     Cd1059   2.056       .  S
O1051      C1065   1.277       .  A
O1052      C1063   1.277   1_554  A
O1052     Cd1055   2.094       .  S
Zn1053     O1064   2.010       .  S
Zn1053     O1066   1.994       .  S
Zn1053     O1058   1.924   1_556  S
O1054      C1065   1.275   1_556  A
O1054     Cd1059   2.062       .  S
Cd1055     O1057   2.075       .  S
Cd1055     O1058   2.015       .  S
Cd1056     O1060   2.077       .  S
Cd1056     O1058   2.020       .  S
Cd1059     O1061   2.061       .  S
C1062      O1066   1.272   1_554  A
C1062      C1244   1.477       .  S
C1063      C1167   1.486       .  S
C1065      C1237   1.484       .  S
C1068      O1069   1.278       .  A
C1068      C1154   1.478       .  S
O1070      C1086   1.272       .  A
O1070     Zn1076   1.979       .  S
C1071      O1087   1.274       .  A
O1072      C1085   1.274       .  A
O1072     Cd1079   2.083   1_565  S
O1073      C1091   1.272       .  A
O1073     Cd1082   2.034       .  S
O1074      C1088   1.277       .  A
O1075      C1086   1.278       .  A
O1075     Cd1078   2.098       .  S
Zn1076     O1087   2.024       .  S
Zn1076     O1089   1.985       .  S
Zn1076     O1081   1.916       .  S
O1077      C1088   1.273       .  A
O1077     Cd1082   2.041       .  S
Cd1078     O1081   2.022       .  S
Cd1079     O1081   2.014   1_545  S
O1080      C1090   1.278       .  A
Cd1082     O1084   2.052       .  S
O1083      C1090   1.274       .  A
C1085      O1089   1.271       .  A
C1085      C1117   1.470       .  S
C1086      C1174   1.479       .  S
C1088      C1124   1.489       .  S
C1090      C1104   1.487       .  S
C1091      O1092   1.276       .  A
C1091      C1184   1.477       .  S
C1093      C1094   1.403       .  A
C1093      C1098   1.396       .  A
C1093      H1100   1.084       .  S
C1095      C1096   1.400       .  A
C1095     Br1102   1.924       .  S
C1096      H1101   1.084       .  S
C1097      C1098   1.416       .  A
C1098     Br1099   1.924       .  S
C1103      C1108   1.401       .  A
C1103      H1110   1.083       .  S
C1104      C1105   1.415       .  A
C1105      C1106   1.398       .  A
C1105     Br1112   1.923       .  S
C1106      C1107   1.406       .  A
C1106      H1111   1.083       .  S
C1108     Br1109   1.922       .  S
C1113      C1114   1.407       .  A
C1113      C1118   1.406       .  A
C1113      H1120   1.083       .  S
C1114      C1115   1.408       .  A
C1115      C1116   1.389       .  A
C1115     Br1122   1.924       .  S
C1116      C1117   1.400       .  A
C1116      H1121   1.085       .  S
C1117      C1118   1.409       .  A
C1118     Br1119   1.917       .  S
C1123      C1124   1.403       .  A
C1123      C1128   1.389       .  A
C1123      H1130   1.084       .  S
C1124      C1125   1.413       .  A
C1125      C1126   1.411       .  A
C1125     Br1132   1.918       .  S
C1126      C1127   1.410       .  A
C1126      H1131   1.083       .  S
C1127      C1128   1.416       .  A
C1128     Br1129   1.928       .  S
C1133      C1134   1.404   1_655  A
C1133      C1138   1.396       .  A
C1133      H1140   1.084       .  S
C1135      C1136   1.402       .  A
C1135     Br1142   1.921       .  S
C1136      C1137   1.407       .  A
C1136      H1141   1.083       .  S
C1138     Br1139   1.923       .  S
C1143      C1148   1.398       .  A
C1143      H1150   1.084       .  S
C1144      C1145   1.413       .  A
C1145      C1146   1.399       .  A
C1145     Br1152   1.922       .  S
C1146      H1151   1.084       .  S
C1147      C1148   1.412       .  A
C1148     Br1149   1.922       .  S
C1153      C1154   1.404       .  A
C1153      C1158   1.405       .  A
C1153      H1160   1.083       .  S
C1154      C1155   1.409   1_554  A
C1155      C1156   1.399       .  A
C1155     Br1162   1.920       .  S
C1156      C1157   1.402   1_556  A
C1156      H1161   1.083       .  S
C1157      C1158   1.412       .  A
C1158     Br1159   1.920       .  S
C1163      C1164   1.405       .  A
C1163      C1168   1.398       .  A
C1163      H1170   1.084       .  S
C1164      C1165   1.417   1_556  A
C1165      C1166   1.403       .  A
C1165     Br1172   1.921       .  S
C1166      C1167   1.405   1_554  A
C1166      H1171   1.083       .  S
C1167      C1168   1.414       .  A
C1168     Br1169   1.923       .  S
C1173      C1174   1.403       .  A
C1173      C1178   1.389       .  A
C1173      H1180   1.084       .  S
C1174      C1175   1.410       .  A
C1175      C1176   1.407       .  A
C1175     Br1182   1.917       .  S
C1176      C1177   1.408       .  A
C1176      H1181   1.083       .  S
C1177      C1178   1.412       .  A
C1178     Br1179   1.927       .  S
C1183      C1184   1.403       .  A
C1183      C1188   1.388       .  A
C1183      H1190   1.084       .  S
C1184      C1185   1.411       .  A
C1185      C1186   1.406       .  A
C1185     Br1192   1.917       .  S
C1186      C1187   1.407       .  A
C1186      H1191   1.083       .  S
C1187      C1188   1.410       .  A
C1188     Br1189   1.926       .  S
C1193      C1194   1.403       .  A
C1193      C1198   1.404       .  A
C1193      H1200   1.084       .  S
C1194      C1195   1.409       .  A
C1195      C1196   1.398       .  A
C1195     Br1202   1.920       .  S
C1196      C1197   1.403       .  A
C1196      H1201   1.084       .  S
C1197      C1198   1.414       .  A
C1198     Br1199   1.920       .  S
C1203      C1204   1.409       .  A
C1203      C1208   1.409       .  A
C1203      H1210   1.083       .  S
C1204      C1205   1.415       .  A
C1205      C1206   1.393       .  A
C1205     Br1212   1.920       .  S
C1206      C1207   1.404       .  A
C1206      H1211   1.084       .  S
C1207      C1208   1.417       .  A
C1208     Br1209   1.920       .  S
C1213      C1214   1.402       .  A
C1213      C1218   1.398       .  A
C1213      H1220   1.085       .  S
C1214      C1215   1.410       .  A
C1215      C1216   1.402       .  A
C1215     Br1222   1.920       .  S
C1216      C1217   1.406       .  A
C1216      H1221   1.084       .  S
C1217      C1218   1.412       .  A
C1218     Br1219   1.915       .  S
C1223      C1224   1.403       .  A
C1223      C1228   1.401       .  A
C1223      H1230   1.084       .  S
C1224      C1225   1.408       .  A
C1225      C1226   1.396       .  A
C1225     Br1232   1.921       .  S
C1226      C1227   1.405       .  A
C1226      H1231   1.084       .  S
C1227      C1228   1.414       .  A
C1228     Br1229   1.921       .  S
C1233      C1234   1.403       .  A
C1233      C1238   1.402       .  A
C1233      H1240   1.084       .  S
C1234      C1235   1.408   1_554  A
C1235      C1236   1.399       .  A
C1235     Br1242   1.921       .  S
C1236      C1237   1.407   1_556  A
C1236      H1241   1.084       .  S
C1237      C1238   1.414       .  A
C1238     Br1239   1.920       .  S
C1243      C1244   1.405       .  A
C1243      C1248   1.410   1_554  A
C1243      H1250   1.083   1_554  S
C1244      C1245   1.407       .  A
C1245      C1246   1.392       .  A
C1245     Br1252   1.924       .  S
C1246      C1247   1.407       .  A
C1246      H1251   1.083       .  S
C1247      C1248   1.416   1_554  A
C1248     Br1249   1.918       .  S
C1253      C1254   1.404   1_556  A
C1253      C1258   1.399       .  A
C1253      H1260   1.084       .  S
C1254      C1255   1.410       .  A
C1255      C1256   1.397       .  A
C1255     Br1262   1.921       .  S
C1256      C1257   1.402   1_554  A
C1256      H1261   1.084       .  S
C1257      C1258   1.408       .  A
C1258     Br1259   1.919       .  S
C1263      C1264   1.401   1_554  A
C1263      C1268   1.405       .  A
C1263      H1270   1.083       .  S
C1264      C1265   1.403       .  A
C1265      C1266   1.391       .  A
C1265     Br1272   1.923       .  S
C1266      C1267   1.408       .  A
C1266      H1271   1.083       .  S
C1267      C1268   1.418   1_556  A
C1268     Br1269   1.919       .  S
