geometry optimzed in LAMMPS
_audit_creation_date              2020-11-30 
_audit_creation_method            'lammps2cif' 
_symmetry_space_group_name_H-M    'P1' 
_symmetry_Int_Tables_number       1 
_symmetry_cell_setting            triclinic 
loop_ 
_symmetry_equiv_pos_as_xyz 
  x,y,z 
_cell_length_a                    36.99723121 
_cell_length_b                    36.905385366220436 
_cell_length_c                    93.5366858413077 
_cell_angle_alpha                 90.07448536089422 
_cell_angle_beta                  90.54327312632941 
_cell_angle_gamma                 120.51767740954713 
loop_ 
_atom_site_label 
_atom_site_type_symbol 
_atom_site_fract_x 
_atom_site_fract_y 
_atom_site_fract_z 
_atom_site_charge 
N1          N  0.66177869  0.08885964  0.70627419    -0.02700
C2          C  0.65170253  0.11444745  0.71354664    -0.00100
C3          C  0.61031341  0.10278406  0.71108825    -0.23000
C4          C  0.59399125  0.06898182  0.70203452    -0.23200
C5          C  0.62576047  0.06075142  0.69931895    -0.00200
H6          H  0.59276143  0.11482342  0.71647964     0.13600
H7          H  0.56113174  0.04918923  0.69921984     0.13600
N8          N  0.91761220  0.19108448  0.64653631    -0.02700
C9          C  0.91941323  0.18130654  0.63266277    -0.00100
C10         C  0.95484776  0.21288862  0.62621852    -0.23000
C11         C  0.97575644  0.24341298  0.63637665    -0.23200
C12         C  0.95242113  0.22953570  0.64870029    -0.00200
H13         H  0.96572592  0.21238979  0.61555680     0.13600
H14         H  0.00556966  0.27218085  0.63508773     0.13600
N15         N  0.52343839  0.81240878  0.83647584    -0.02700
C16         C  0.48756578  0.77864066  0.83121553    -0.00100
C17         C  0.45286199  0.77716501  0.83735435    -0.23000
C18         C  0.46716588  0.81291535  0.84542384    -0.23200
C19         C  0.51020130  0.83462363  0.84427538    -0.00200
H20         H  0.42043993  0.75660319  0.83415616     0.13600
H21         H  0.44807761  0.82415989  0.85017248     0.13600
N22         N  0.74009123  0.75187510  0.87732133    -0.02700
C23         C  0.77655328  0.77947075  0.88421410    -0.00100
C24         C  0.80649521  0.76818753  0.88201136    -0.23000
C25         C  0.78836357  0.73312319  0.87348476    -0.23200
C26         C  0.74771061  0.72351201  0.87079368    -0.00200
H27         H  0.83695617  0.78147843  0.88716503     0.13600
H28         H  0.80185524  0.71395083  0.87082693     0.13600
N29         N  0.85071726  0.46767070  0.50289323    -0.02700
C30         C  0.81627599  0.44287451  0.49454663    -0.00100
C31         C  0.78798969  0.45679139  0.49519738    -0.23000
C32         C  0.80578913  0.49191629  0.50369354    -0.23200
C33         C  0.84447579  0.49864552  0.50806408    -0.00200
H34         H  0.75932913  0.44515928  0.48898454     0.13600
H35         H  0.79396999  0.51314076  0.50515093     0.13600
N36         N  0.04209313  0.38946883  0.55391455    -0.02700
C37         C  0.07257839  0.41335232  0.56363121    -0.00100
C38         C  0.09277806  0.39255009  0.56823632    -0.23000
C39         C  0.07457276  0.35486607  0.56103050    -0.23200
C40         C  0.04384836  0.35388715  0.55227182    -0.00200
H41         H  0.11744511  0.40330186  0.57625839     0.13600
H42         H  0.08260458  0.33058613  0.56211372     0.13600
N43         N  0.61465499  0.48194674  0.99689114    -0.02700
C44         C  0.62023042  0.45883220  0.98684278    -0.00100
C45         C  0.66219826  0.47128332  0.98588937    -0.23000
C46         C  0.68320867  0.50306052  0.99569895    -0.23200
C47         C  0.65335718  0.50897567  0.00234439    -0.00200
H48         H  0.67629753  0.46049269  0.97815412     0.13600
H49         H  0.71693041  0.52214352  0.99698385     0.13600
N50         N  0.34526939  0.41452967  0.04423071    -0.02700
C51         C  0.33959944  0.44379707  0.05115606    -0.00100
C52         C  0.30249294  0.44111986  0.04691622    -0.23000
C53         C  0.28375845  0.40852441  0.03737301    -0.23200
C54         C  0.30972526  0.39194479  0.03613390    -0.00200
H55         H  0.28878806  0.45856948  0.05125842     0.13600
H56         H  0.25190319  0.39467588  0.03333023     0.13600
N57         N  0.01125891  0.73713302  0.37797641    -0.02700
C58         C  0.00380856  0.76313639  0.38616738    -0.00100
C59         C  0.96238311  0.75261273  0.38477516    -0.23000
C60         C  0.94339834  0.71895623  0.37564119    -0.23200
C61         C  0.97378571  0.70991477  0.37161579    -0.00200
H62         H  0.94662867  0.76521352  0.39096429     0.13600
H63         H  0.91013796  0.70061775  0.37323005     0.13600
N64         N  0.28782924  0.80330931  0.33586256    -0.02700
C65         C  0.29769700  0.77824386  0.32810644    -0.00100
C66         C  0.33927812  0.79020854  0.33048506    -0.23000
C67         C  0.35589015  0.82427057  0.33951754    -0.23200
C68         C  0.32414163  0.83230922  0.34248303    -0.00200
H69         H  0.35683106  0.77820012  0.32508023     0.13600
H70         H  0.38880702  0.84413043  0.34223061     0.13600
N71         N  0.18578551  0.13457252  0.17062846    -0.02700
C72         C  0.15244237  0.10486763  0.16294100    -0.00100
C73         C  0.11814701  0.10982455  0.16476178    -0.23000
C74         C  0.13074816  0.14388592  0.17360140    -0.23200
C75         C  0.17239500  0.15870878  0.17697943    -0.00200
H76         H  0.08890299  0.09397922  0.15876328     0.13600
H77         H  0.11305225  0.15924447  0.17580629     0.13600
N78         N  0.39987753  0.07132689  0.21215882    -0.02700
C79         C  0.43647538  0.09957583  0.21875365    -0.00100
C80         C  0.46731161  0.08984746  0.21623922    -0.23000
C81         C  0.44934667  0.05436895  0.20790746    -0.23200
C82         C  0.40799284  0.04324386  0.20561139    -0.00200
H83         H  0.49811686  0.10422109  0.22120876     0.13600
H84         H  0.46342783  0.03570668  0.20528647     0.13600
N85         N  0.10054854  0.64920985  0.83223929    -0.02700
C86         C  0.13034094  0.64540097  0.82503476    -0.00100
C87         C  0.12645775  0.60677587  0.82791210    -0.23000
C88         C  0.09255336  0.58543299  0.83660188    -0.23200
C89         C  0.07707954  0.61189493  0.83902821    -0.00200
H90         H  0.14272004  0.59321919  0.82257332     0.13600
H91         H  0.07834267  0.55273968  0.83961417     0.13600
N92         N  0.16991559  0.92451409  0.87846370    -0.02700
C93         C  0.14408108  0.93285937  0.88638014    -0.00100
C94         C  0.15400460  0.97402696  0.88457076    -0.23000
C95         C  0.18685956  0.99202927  0.87534626    -0.23200
C96         C  0.19612146  0.96139538  0.87173811    -0.00200
H97         H  0.14110097  0.99022792  0.89035669     0.13600
H98         H  0.20479703  0.02505438  0.87264698     0.13600
N99         N  0.75801255  0.70966258  0.66455665    -0.02700
C100        C  0.78115130  0.74389822  0.65613774    -0.00100
C101        C  0.76378114  0.76941818  0.65596878    -0.23000
C102        C  0.72907790  0.75071064  0.66438267    -0.23200
C103        C  0.72589197  0.71413865  0.66943543    -0.00200
H104        H  0.77351884  0.79717111  0.64953988     0.13600
H105        H  0.70678804  0.76113301  0.66588509     0.13600
N106        N  0.83741087  0.50824968  0.70679570    -0.02700
C107        C  0.81311539  0.47442683  0.71512999    -0.00100
C108        C  0.82604339  0.44535828  0.71415565    -0.23000
C109        C  0.85928802  0.46160574  0.70502212    -0.23200
C110        C  0.86568986  0.50013554  0.70060141    -0.00200
H111        H  0.81493591  0.41713239  0.72044871     0.13600
H112        H  0.87887308  0.44832742  0.70280643     0.13600
N113        N  0.43772857  0.29608355  0.50156767    -0.02700
C114        C  0.46002470  0.28209059  0.49412649    -0.00100
C115        C  0.44329360  0.23943894  0.49624018    -0.23000
C116        C  0.40964710  0.22638919  0.50498440    -0.23200
C117        C  0.40615844  0.26112050  0.50791721    -0.00200
H118        H  0.45185723  0.21897424  0.49084428     0.13600
H119        H  0.38719614  0.19404714  0.50760784     0.13600
N120        N  0.53743602  0.55123709  0.56260692    -0.02700
C121        C  0.52521439  0.55267942  0.57622558    -0.00100
C122        C  0.55868963  0.58337571  0.58408039    -0.23000
C123        C  0.59255389  0.60121955  0.57521843    -0.23200
C124        C  0.57888413  0.58094751  0.56218818    -0.00200
H125        H  0.55761838  0.59407820  0.59476612     0.13600
H126        H  0.62319459  0.62797821  0.57770499     0.13600
N127        N  0.41233576  0.03980663  0.99314716    -0.02700
C128        C  0.43262146  0.06876408  0.98265437    -0.00100
C129        C  0.41483296  0.09346919  0.98059994    -0.23000
C130        C  0.38255247  0.07988102  0.98994418    -0.23200
C131        C  0.38154455  0.04726541  0.99745594    -0.00200
H132        H  0.42320380  0.11743312  0.97255289     0.13600
H133        H  0.36072052  0.09113630  0.99071537     0.13600
N134        N  0.50104725  0.86154768  0.04779269    -0.02700
C135        C  0.47701787  0.82736757  0.05608747    -0.00100
C136        C  0.49489751  0.80248511  0.05725483    -0.23000
C137        C  0.53076702  0.82132558  0.04944242    -0.23200
C138        C  0.53392632  0.85723463  0.04369648    -0.00200
H139        H  0.48422135  0.77484530  0.06383230     0.13600
H140        H  0.55319775  0.81087793  0.04847600     0.13600
N141        N  0.17337838  0.18686441  0.38002647    -0.02700
C142        C  0.14580561  0.15072552  0.38685843    -0.00100
C143        C  0.15511580  0.11950044  0.38437169    -0.23000
C144        C  0.18945376  0.13647160  0.37576712    -0.23200
C145        C  0.20037638  0.17766717  0.37325838    -0.00200
H146        H  0.14047473  0.08870458  0.38922442     0.13600
H147        H  0.20715445  0.12164861  0.37279999     0.13600
N148        N  0.10732501  0.39411853  0.33391443    -0.02700
C149        C  0.13449544  0.42545676  0.32511378    -0.00100
C150        C  0.12587886  0.45778560  0.32497960    -0.23000
C151        C  0.09211016  0.44599661  0.33359668    -0.23200
C152        C  0.08095924  0.40678162  0.33887593    -0.00200
H153        H  0.13969626  0.48494908  0.31806353     0.13600
H154        H  0.07489621  0.46235028  0.33467013     0.13600
N155        N  0.84189840  0.24527108  0.21188855    -0.02700
C156        C  0.82547010  0.25585444  0.22298958    -0.00100
C157        C  0.84460692  0.29898957  0.22431023    -0.23000
C158        C  0.87427737  0.31584231  0.21389023    -0.23200
C159        C  0.87251775  0.28249686  0.20652831    -0.00200
H160        H  0.83909229  0.31627461  0.23251803     0.13600
H161        H  0.89702028  0.34889278  0.21253598     0.13600
N162        N  0.77080335  0.96646056  0.16949659    -0.02700
C163        C  0.80072397  0.95938289  0.16411736    -0.00100
C164        C  0.79187702  0.91916050  0.16733648    -0.23000
C165        C  0.75525520  0.90060943  0.17479737    -0.23200
C166        C  0.74268502  0.92989974  0.17588584    -0.00200
H167        H  0.80754319  0.90330631  0.16326496     0.13600
H168        H  0.73704709  0.86766279  0.17757467     0.13600
N169        N  0.53391303  0.63419052  0.33273529    -0.02700
C170        C  0.49771248  0.62311337  0.32533143    -0.00100
C171        C  0.46988775  0.58038618  0.32661962    -0.23000
C172        C  0.48928411  0.56447682  0.33485036    -0.23200
C173        C  0.52845354  0.59778349  0.33837380    -0.00200
H174        H  0.44008441  0.56204475  0.32109237     0.13600
H175        H  0.47744367  0.53157528  0.33707201     0.13600
N176        N  0.74076811  0.91710743  0.37564316    -0.02700
C177        C  0.76987523  0.92541508  0.38609041    -0.00100
C178        C  0.79821096  0.96807153  0.38695238    -0.23000
C179        C  0.78619755  0.98685470  0.37685873    -0.23200
C180        C  0.75076268  0.95516707  0.37009799    -0.00200
H181        H  0.82309309  0.98405136  0.39482483     0.13600
H182        H  0.79968269  0.02037989  0.37545233     0.13600
N183        N  0.38560949  0.25455221  0.71295775    -0.02700
C184        C  0.41184642  0.26270962  0.72441200    -0.00100
C185        C  0.43557768  0.30536257  0.72708098    -0.23000
C186        C  0.42356749  0.32452541  0.71722195    -0.23200
C187        C  0.39271297  0.29304675  0.70879004    -0.00200
H188        H  0.45785657  0.32068381  0.73576769     0.13600
H189        H  0.43415734  0.35776682  0.71683823     0.13600
N190        N  0.18693513  0.97424088  0.66708838    -0.02700
C191        C  0.15328450  0.96519788  0.65860516    -0.00100
C192        C  0.12417666  0.92262734  0.65902314    -0.23000
C193        C  0.14019355  0.90488425  0.66805794    -0.23200
C194        C  0.17863353  0.93706758  0.67288460    -0.00200
H195        H  0.09582465  0.90579926  0.65260769     0.13600
H196        H  0.12667612  0.87162925  0.67009500     0.13600
N197        N  0.57806773  0.98220375  0.48547686    -0.02700
C198        C  0.57847455  0.99395663  0.47165372    -0.00100
C199        C  0.60480840  0.98614010  0.46354082    -0.23000
C200        C  0.62107025  0.96864794  0.47246860    -0.23200
C201        C  0.60410902  0.96632142  0.48574675    -0.00200
H202        H  0.61307466  0.99454799  0.45247281     0.13600
H203        H  0.64451549  0.96054813  0.46978685     0.13600
N204        N  0.37012426  0.92971602  0.56278865    -0.02700
C205        C  0.37250146  0.92442981  0.57710433    -0.00100
C206        C  0.34939495  0.93825208  0.58445766    -0.23000
C207        C  0.33207525  0.95210082  0.57448675    -0.23200
C208        C  0.34468920  0.94609606  0.56130557    -0.00200
H209        H  0.34197794  0.93436277  0.59571880     0.13600
H210        H  0.30867318  0.96077593  0.57650788     0.13600
N211        N  0.67130087  0.52049494  0.21307164    -0.02700
C212        C  0.66044033  0.48781260  0.22228009    -0.00100
C213        C  0.61728847  0.46252542  0.22288836    -0.23000
C214        C  0.60063627  0.47948740  0.21395176    -0.23200
C215        C  0.63390496  0.51487851  0.20814394    -0.00200
H216        H  0.59968499  0.43597195  0.22986634     0.13600
H217        H  0.56762133  0.46873875  0.21250626     0.13600
N218        N  0.94805300  0.71918482  0.16743332    -0.02700
C219        C  0.95625475  0.75008181  0.15781112    -0.00100
C220        C  0.99882031  0.77864524  0.15747906    -0.23000
C221        C  0.01758661  0.76511444  0.16706645    -0.23200
C222        C  0.98601286  0.72854009  0.17303024    -0.00200
H223        H  0.01475990  0.80509400  0.15033317     0.13600
H224        H  0.05103270  0.77868461  0.16867225     0.13600
N225        N  0.93524043  0.33847367  0.98344251    -0.02700
C226        C  0.92097417  0.33715381  0.96985259    -0.00100
C227        C  0.92480165  0.30806294  0.96172430    -0.23000
C228        C  0.94139506  0.29040228  0.97049184    -0.23200
C229        C  0.94740824  0.30924265  0.98377198    -0.00200
H230        H  0.91404093  0.29874810  0.95080621     0.13600
H231        H  0.94568663  0.26433917  0.96774743     0.13600
N232        N  0.00207944  0.55969364  0.05880996    -0.12900
C233        C  0.01167631  0.55865804  0.07284354    -0.00100
C234        C  0.00606087  0.58728954  0.08062624    -0.23000
C235        C  0.99230912  0.60624360  0.07120858    -0.23200
C236        C  0.99000485  0.58878574  0.05792946    -0.00200
H237        H  0.01330245  0.59511832  0.09184382     0.13600
H238        H  0.98618621  0.63129363  0.07365869     0.13600
N239        N  0.26879176  0.38303860  0.83236980    -0.02700
C240        C  0.27108322  0.41779054  0.82630234    -0.00100
C241        C  0.30709142  0.45369041  0.83097959    -0.23000
C242        C  0.32961058  0.44093624  0.83900018    -0.23200
C243        C  0.30633343  0.39757515  0.83931022    -0.00200
H244        H  0.31931868  0.48513761  0.82684324     0.13600
H245        H  0.36162846  0.46085662  0.84271158     0.13600
N246        N  0.99370405  0.17397758  0.87768269    -0.02700
C247        C  0.98712652  0.13839397  0.88439750    -0.00100
C248        C  0.94786275  0.10488474  0.88089724    -0.23000
C249        C  0.92920751  0.12005856  0.87200960    -0.23200
C250        C  0.95739838  0.16240315  0.87036446    -0.00200
H251        H  0.93236727  0.07399409  0.88568495     0.13600
H252        H  0.89657875  0.10331547  0.86866165     0.13600
O253        O  0.63007008  0.21023767  0.81551595    -0.79300
O254        O  0.75337913  0.40541989  0.86357055    -0.80900
O255        O  0.71504516  0.35375894  0.81606166    -0.77900
O256        O  0.75602774  0.28675500  0.84398173    -0.76300
O257        O  0.72850699  0.24481387  0.86363184    -0.78100
O258        O  0.66034793  0.36599496  0.81547273    -0.79000
O259        O  0.76794565  0.37793589  0.84406281    -0.80400
O260        O  0.69756002  0.26591301  0.81560694    -0.80600
Eu261      Eu  0.70670051  0.30987499  0.83690513     2.39200
O262        O  0.70604502  0.31091630  0.86206107    -0.88100
O263        O  0.63792519  0.28368062  0.82831833    -0.91800
C264        C  0.66675820  0.23210938  0.80998467     1.02900
C265        C  0.77794957  0.40721109  0.85351077     1.02800
C266        C  0.69469465  0.37010621  0.81039365     1.02700
C267        C  0.75665062  0.26291941  0.85394457     1.00600
H268        H  0.69935401  0.38186435  0.84145333     0.30300
O269        O  0.68163064  0.35364173  0.84493231    -1.00500
H270        H  0.67312770  0.22260281  0.84167101     0.30300
O271        O  0.66291075  0.24047098  0.84506348    -1.03100
O272        O  0.63955443  0.36014580  0.89000532    -0.80300
O273        O  0.51965374  0.16530115  0.84252578    -0.79800
O274        O  0.63664964  0.40131436  0.84245643    -0.78300
O275        O  0.71134398  0.28195673  0.89018544    -0.81600
O276        O  0.63706818  0.16749246  0.86443008    -0.79500
O277        O  0.56935257  0.28865597  0.81519104    -0.78100
O278        O  0.52029340  0.28325085  0.86158923    -0.79600
O279        O  0.56224978  0.21447400  0.89007337    -0.81600
O280        O  0.54699030  0.32418775  0.84180298    -0.78300
O281        O  0.61831130  0.20433815  0.89073391    -0.81000
O282        O  0.67660562  0.41651106  0.86282308    -0.76700
O283        O  0.55529216  0.22069353  0.81582081    -0.76800
O284        O  0.59603607  0.15190087  0.84433506    -0.76400
O285        O  0.72009970  0.34804240  0.89052767    -0.79900
O286        O  0.57273872  0.30385826  0.88935458    -0.79300
O287        O  0.50600785  0.19245102  0.86227668    -0.77600
Eu288      Eu  0.68050984  0.35430549  0.87017974     2.39800
Eu289      Eu  0.59365476  0.21466398  0.83654097     2.39600
Eu290      Eu  0.61347438  0.32804966  0.83584112     2.38400
Eu291      Eu  0.66296956  0.24187024  0.87030385     2.39900
Eu292      Eu  0.56859905  0.25903075  0.86937682     2.39800
O293        O  0.59390310  0.21549275  0.86165108    -0.92100
O294        O  0.61221292  0.32805098  0.86105180    -0.91000
C295        C  0.60166010  0.33895161  0.89480593     1.03100
C296        C  0.49492189  0.16412370  0.85240144     1.01800
C297        C  0.65935871  0.42646267  0.85264844     1.01200
C298        C  0.72710883  0.31943504  0.89547387     1.03200
C299        C  0.61294269  0.14178436  0.85458447     1.02100
C300        C  0.55214274  0.25086275  0.81010961     1.01000
C301        C  0.51865164  0.30626211  0.85147697     1.01100
C302        C  0.58355500  0.19900370  0.89573694     1.03700
H303        H  0.54107993  0.24833321  0.84061020     0.31000
O304        O  0.56924727  0.25901243  0.84425590    -1.04200
H305        H  0.63716405  0.28544201  0.88871821     0.33100
O306        O  0.63727893  0.28515979  0.87838900    -1.06800
O307        O  0.89107255  0.88018388  0.98482943    -0.79300
O308        O  0.96563316  0.06726295  0.03570301    -0.80900
O309        O  0.84668737  0.95547808  0.01497960    -0.77900
O310        O  0.95872241  0.02630745  0.98767654    -0.76300
O311        O  0.02497655  0.03634318  0.98759661    -0.78100
O312        O  0.83154283  0.91249426  0.03430926    -0.79000
O313        O  0.92502553  0.04447739  0.01543005    -0.80400
O314        O  0.88106903  0.93644308  0.98594376    -0.80600
Eu315      Eu  0.91918689  0.97813955  0.00743529     2.39200
O316        O  0.98855893  0.02003681  0.01622800    -0.88100
O317        O  0.89285800  0.90779477  0.01449022    -0.91800
C318        C  0.87559598  0.90234068  0.97996708     1.02900
C319        C  0.94308667  0.07105332  0.02579248     1.02800
C320        C  0.82212604  0.93268815  0.02513353     1.02700
C321        C  0.99599636  0.04254170  0.98243874     1.00600
H322        H  0.90254797  0.98536386  0.03662889     0.30300
O323        O  0.91937088  0.97470223  0.03265641    -1.00500
H324        H  0.96239411  0.95500466  0.98805684     0.30300
O325        O  0.96216029  0.95348417  0.99838749    -1.03100
O326        O  0.03152516  0.01833709  0.06194140    -0.80300
O327        O  0.95510884  0.82981437  0.01129999    -0.79800
O328        O  0.89037649  0.93905996  0.06197718    -0.78300
O329        O  0.08254830  0.06700770  0.01547662    -0.81600
O330        O  0.03847754  0.96138589  0.98553744    -0.79500
O331        O  0.84366911  0.83200714  0.03163384    -0.78100
O332        O  0.96483323  0.87559719  0.05991088    -0.79600
O333        O  0.07408771  0.93940472  0.03187519    -0.81600
O334        O  0.89820720  0.86438792  0.06015982    -0.78300
O335        O  0.09008707  0.98414215  0.01304929    -0.81000
O336        O  0.94651436  0.00622803  0.06265152    -0.76700
O337        O  0.86882214  0.82061409  0.01096286    -0.76800
O338        O  0.98309916  0.89375155  0.98478544    -0.76400
O339        O  0.05643479  0.07859791  0.03582999    -0.79900
O340        O  0.04282361  0.96290051  0.06055819    -0.79300
O341        O  0.99387082  0.85159006  0.03193145    -0.77600
Eu342      Eu  0.98862628  0.01628357  0.04133051     2.39800
Eu343      Eu  0.93584072  0.88322880  0.00513456     2.39600
Eu344      Eu  0.89250964  0.90434553  0.03975885     2.38400
Eu345      Eu  0.03124577  0.99504467  0.00721518     2.39900
Eu346      Eu  0.00337897  0.92018737  0.03940842     2.39800
O347        O  0.00444428  0.92467561  0.01424057    -0.92100
O348        O  0.96162681  0.94605580  0.04821203    -0.91000
C349        C  0.04728634  0.99638950  0.06669959     1.03100
C350        C  0.97539353  0.82458721  0.02166427     1.01800
C351        C  0.91290951  0.97547103  0.06800070     1.01200
C352        C  0.08471639  0.09041399  0.02613593     1.03200
C353        C  0.01765239  0.92443907  0.97974795     1.02100
C354        C  0.84142395  0.80861254  0.02099598     1.01000
C355        C  0.92798372  0.85963623  0.06546145     1.01100
C356        C  0.09877027  0.96271815  0.02190500     1.03700
H357        H  0.92322071  0.85047393  0.03337989     0.31000
O358        O  0.93464521  0.87928497  0.03037344    -1.04200
H359        H  0.05942000  0.00756211  0.03602939     0.33100
O360        O  0.03109510  0.99089330  0.03236556    -1.06800
O361        O  0.70893692  0.34658128  0.39331761    -0.79300
O362        O  0.63268031  0.15666018  0.34349962    -0.80900
O363        O  0.63841092  0.20033875  0.39116749    -0.77900
O364        O  0.75251227  0.27155621  0.36461044    -0.76300
O365        O  0.76591346  0.31151880  0.34454010    -0.78100
O366        O  0.57341099  0.19337907  0.39192804    -0.79000
O367        O  0.67462002  0.18188167  0.36338488    -0.80400
O368        O  0.71636989  0.28875181  0.39289031    -0.80600
Eu369      Eu  0.67922971  0.24762491  0.37145767     2.39200
O370        O  0.67783466  0.24865892  0.34630279    -0.88100
O371        O  0.63842155  0.27485898  0.38039689    -0.91800
C372        C  0.72254472  0.32332024  0.39861913     1.02900
C373        C  0.65701484  0.15477779  0.35313534     1.02800
C374        C  0.60141294  0.18512044  0.39653239     1.02700
C375        C  0.77665506  0.29401778  0.35433679     1.00600
H376        H  0.59826865  0.17797764  0.36654162     0.30300
O377        O  0.60944325  0.20650573  0.36330714    -1.00500
H378        H  0.73526026  0.33414910  0.36705585     0.30300
O379        O  0.70672121  0.31730306  0.36359158    -1.03100
O380        O  0.56166289  0.20123150  0.31841196    -0.80300
O381        O  0.64747729  0.39760330  0.36619170    -0.79800
O382        O  0.51720277  0.16122630  0.36553180    -0.78300
O383        O  0.70847028  0.27953534  0.31739114    -0.81600
O384        O  0.75703051  0.39104078  0.34554916    -0.79500
O385        O  0.56622679  0.27317803  0.39336307    -0.78100
O386        O  0.52046440  0.28056722  0.34608972    -0.79600
O387        O  0.63312280  0.35055008  0.31879970    -0.81600
O388        O  0.50707607  0.23970802  0.36584986    -0.78300
O389        O  0.69870175  0.35878027  0.31852336    -0.81000
O390        O  0.54211828  0.14396829  0.34588035    -0.76700
O391        O  0.62400281  0.33921049  0.39378360    -0.76800
O392        O  0.73384348  0.40477809  0.36623344    -0.76400
O393        O  0.65122179  0.21305316  0.31729060    -0.79900
O394        O  0.55277754  0.25814571  0.31854924    -0.79300
O395        O  0.60302936  0.37213955  0.34674815    -0.77600
Eu396      Eu  0.60810872  0.20656631  0.33819756     2.39800
Eu397      Eu  0.66587140  0.34431079  0.37264418     2.39600
Eu398      Eu  0.56875679  0.23433293  0.37215780     2.38400
Eu399      Eu  0.70477956  0.31817204  0.33836503     2.39900
Eu400      Eu  0.59382107  0.30382155  0.33899378     2.39800
O401        O  0.66361618  0.34472674  0.34744104    -0.92100
O402        O  0.56730790  0.23426182  0.34699252    -0.91000
C403        C  0.54585017  0.22267376  0.31328009     1.03100
C404        C  0.62378676  0.40018740  0.35652331     1.01800
C405        C  0.51505227  0.13514042  0.35589511     1.01200
C406        C  0.68594672  0.24225994  0.31193181     1.03200
C407        C  0.76078286  0.41536696  0.35613052     1.02100
C408        C  0.58924411  0.30999399  0.39912056     1.01000
C409        C  0.49599493  0.25721582  0.35619494     1.01100
C410        C  0.67031416  0.36605330  0.31351821     1.03700
H411        H  0.57942202  0.31514966  0.36803021     0.31000
O412        O  0.59588931  0.30380136  0.36426835    -1.04200
H413        H  0.63424732  0.27656959  0.31991342     0.33100
O414        O  0.63484077  0.27630037  0.33024497    -1.06800
O415        O  0.42296967  0.73370118  0.67835443    -0.79300
O416        O  0.23129405  0.62801254  0.72620491    -0.80900
O417        O  0.31163940  0.74566211  0.69995392    -0.77900
O418        O  0.37833658  0.69609099  0.72608313    -0.76300
O419        O  0.38047539  0.63514668  0.72634794    -0.78100
O420        O  0.26866389  0.72056380  0.68020753    -0.79000
O421        O  0.29260279  0.69172549  0.72657587    -0.80400
O422        O  0.39982266  0.75384956  0.69776417    -0.80600
Eu423      Eu  0.33339561  0.69364400  0.70574819     2.39200
O424        O  0.30251586  0.62389688  0.71407718    -0.88100
O425        O  0.33140444  0.69249696  0.68053871    -0.91800
C426        C  0.42642868  0.76077224  0.68780594     1.02900
C427        C  0.25639086  0.66486893  0.73160333     1.02800
C428        C  0.28738961  0.74789100  0.69035094     1.02700
C429        C  0.38990296  0.67133615  0.73161815     1.00600
H430        H  0.24761365  0.66647246  0.70103778     0.30300
O431        O  0.26334168  0.65407199  0.69747456    -1.00500
H432        H  0.39992454  0.67828639  0.70060936     0.30300
O433        O  0.37115203  0.66229769  0.69727608    -1.03100
O434        O  0.17594071  0.51399255  0.69874998    -0.80300
O435        O  0.37092429  0.61968754  0.65178886    -0.79800
O436        O  0.18910866  0.63317936  0.67896445    -0.78300
O437        O  0.29902069  0.54720797  0.72557839    -0.81600
O438        O  0.41146357  0.61082143  0.69815244    -0.79500
O439        O  0.30274293  0.69829467  0.65227388    -0.78100
O440        O  0.22622020  0.55166991  0.65138336    -0.79600
O441        O  0.28563326  0.49923386  0.67880195    -0.81600
O442        O  0.22012353  0.61015900  0.65135263    -0.78300
O443        O  0.32924380  0.52330061  0.69836931    -0.81000
O444        O  0.17289691  0.59396580  0.69930827    -0.76700
O445        O  0.36649222  0.70232652  0.65193208    -0.76800
O446        O  0.42863720  0.65179508  0.67825257    -0.76400
O447        O  0.23579230  0.54441238  0.72651786    -0.79900
O448        O  0.19641838  0.49686692  0.67797625    -0.79300
O449        O  0.31140436  0.55489749  0.65149429    -0.77600
Eu450      Eu  0.23227777  0.58489612  0.70604984     2.39800
Eu451      Eu  0.36917688  0.66125132  0.67208478     2.39600
Eu452      Eu  0.26131329  0.65341237  0.67225421     2.38400
Eu453      Eu  0.33989779  0.59235432  0.70548536     2.39900
Eu454      Eu  0.26836918  0.55315226  0.67200279     2.39800
O455        O  0.33827306  0.59180409  0.68033845    -0.92100
O456        O  0.23105398  0.58428451  0.68082821    -0.91000
C457        C  0.16964629  0.48945759  0.68798178     1.03100
C458        C  0.34749127  0.58247314  0.64642179     1.01800
C459        C  0.16400970  0.61214994  0.68922314     1.01200
C460        C  0.26290299  0.53493910  0.73124770     1.03200
C461        C  0.43700554  0.63239560  0.68805093     1.02100
C462        C  0.33946631  0.71147163  0.64696148     1.01000
C463        C  0.21227301  0.57446108  0.64601073     1.01100
C464        C  0.30857647  0.49554131  0.68851896     1.03700
H465        H  0.29919826  0.62269645  0.65336739     0.31000
O466        O  0.29938080  0.62266445  0.66369972    -1.04200
H467        H  0.25654492  0.52489264  0.70060525     0.33100
O468        O  0.26962459  0.55350752  0.69725060    -1.06800
O469        O  0.29952657  0.53688102  0.14916935    -0.79300
O470        O  0.41608729  0.72539075  0.19852596    -0.80900
O471        O  0.37439892  0.68066499  0.15074478    -0.77900
O472        O  0.42049462  0.61379471  0.17780184    -0.76300
O473        O  0.39554345  0.57063311  0.19721098    -0.78100
O474        O  0.31721261  0.68901050  0.15095676    -0.79000
O475        O  0.43099050  0.70207074  0.17794554    -0.80400
O476        O  0.36578797  0.59405734  0.14991504    -0.80600
Eu477      Eu  0.36933808  0.63517374  0.17093329     2.39200
O478        O  0.36958396  0.63321329  0.19609403    -0.88100
O479        O  0.30030310  0.60827382  0.16221984    -0.91800
C480        C  0.33687572  0.55972522  0.14405447     1.02900
C481        C  0.44065083  0.72867509  0.18826359     1.02800
C482        C  0.35226576  0.69594366  0.14568460     1.02700
C483        C  0.42351961  0.59062936  0.18754654     1.00600
H484        H  0.35915101  0.70481703  0.17638660     0.30300
O485        O  0.34194157  0.67618476  0.17957695    -1.00500
H486        H  0.33862402  0.54848472  0.17489035     0.30300
O487        O  0.32733422  0.56511659  0.17858489    -1.03100
O488        O  0.30544752  0.67884515  0.22569342    -0.80300
O489        O  0.18508082  0.48669336  0.17629420    -0.79800
O490        O  0.29430033  0.72120451  0.17841312    -0.78300
O491        O  0.37170752  0.60252923  0.22485646    -0.81600
O492        O  0.30390387  0.49012508  0.19593365    -0.79500
O493        O  0.22808131  0.61046477  0.14991600    -0.78100
O494        O  0.18043479  0.60042912  0.19780395    -0.79600
O495        O  0.22555822  0.53222611  0.22398272    -0.81600
O496        O  0.20456456  0.64108655  0.17781158    -0.78300
O497        O  0.28179273  0.52250141  0.22410388    -0.81000
O498        O  0.33611257  0.73581991  0.19828610    -0.76700
O499        O  0.21908257  0.54451148  0.14923002    -0.76800
O500        O  0.26305941  0.47657261  0.17592959    -0.76400
O501        O  0.38066206  0.66858688  0.22552180    -0.79900
O502        O  0.23927022  0.62148443  0.22547999    -0.79300
O503        O  0.17064775  0.51096255  0.19668093    -0.77600
Eu504      Eu  0.34265410  0.67470523  0.20473172     2.39800
Eu505      Eu  0.25832249  0.53845442  0.16976213     2.39600
Eu506      Eu  0.27243321  0.64875295  0.17100016     2.38400
Eu507      Eu  0.32743899  0.56310084  0.20385506     2.39900
Eu508      Eu  0.23159094  0.57843349  0.20404853     2.39800
O509        O  0.25860611  0.53730350  0.19501933    -0.92100
O510        O  0.27336694  0.64820231  0.19624332    -0.91000
C511        C  0.26888511  0.65584859  0.23123895     1.03100
C512        C  0.16026277  0.48378947  0.18646423     1.01800
C513        C  0.31788402  0.74598810  0.18855590     1.01200
C514        C  0.38658655  0.63944006  0.23061469     1.03200
C515        C  0.28099639  0.46582321  0.18553234     1.02100
C516        C  0.21276830  0.57350024  0.14418936     1.01000
C517        C  0.17704145  0.62244459  0.18769400     1.01100
C518        C  0.24671186  0.51623718  0.22928490     1.03700
H519        H  0.20249930  0.56778527  0.17531257     0.31000
O520        O  0.23090963  0.57912763  0.17881886    -1.04200
H521        H  0.30065294  0.60414246  0.22269727     0.33100
O522        O  0.30065906  0.60479696  0.21237163    -1.06800
O523        O  0.96576496  0.01739717  0.55681250    -0.79300
O524        O  0.85084120  0.81640015  0.51153694    -0.80900
O525        O  0.84484584  0.93022325  0.53011901    -0.77900
O526        O  0.89152050  0.86688472  0.55864190    -0.76300
O527        O  0.94939994  0.85972957  0.55909243    -0.78100
O528        O  0.86962785  0.97125452  0.51024695    -0.79000
O529        O  0.83645164  0.84222055  0.53148856    -0.80400
O530        O  0.90026071  0.95894960  0.55689976    -0.80600
Eu531      Eu  0.89680189  0.91125087  0.53790322     2.39200
O532        O  0.92463819  0.87021493  0.52998013    -0.88100
O533        O  0.93815338  0.98018369  0.52921294    -0.91800
C534        C  0.92805417  0.99561761  0.56167882     1.02900
C535        C  0.82627838  0.81373990  0.52175081     1.02800
C536        C  0.84156325  0.95196256  0.51991721     1.02700
C537        C  0.91383926  0.85232040  0.56414206     1.00600
H538        H  0.86788997  0.89831191  0.50903665     0.30300
O539        O  0.89625459  0.91041781  0.51267032    -1.00500
H540        H  0.96589378  0.94154923  0.55694528     0.30300
O541        O  0.96612167  0.94090634  0.54661950    -1.03100
O542        O  0.96173249  0.86276776  0.48450187    -0.80300
O543        O  0.08102345  0.06037981  0.53150416    -0.79800
O544        O  0.89736731  0.94111775  0.48290898    -0.78300
O545        O  0.97233079  0.82595209  0.53236612    -0.81600
O546        O  0.03768853  0.94120553  0.55924512    -0.79500
O547        O  0.95690498  0.05174610  0.51084751    -0.78100
O548        O  0.03996339  0.01134801  0.48382140    -0.79600
O549        O  0.08741122  0.94961236  0.51204743    -0.81600
O550        O  0.98300601  0.01993694  0.48382649    -0.78300
O551        O  0.06347014  0.91078729  0.53238843    -0.81000
O552        O  0.88695570  0.87449480  0.48351076    -0.76700
O553        O  0.99956518  0.06984073  0.53059455    -0.76800
O554        O  0.04584388  0.00675063  0.55891101    -0.76400
O555        O  0.92984894  0.80827890  0.51254002    -0.79900
O556        O  0.02713763  0.92111342  0.48380299    -0.79300
O557        O  0.09614741  0.03425544  0.51175415    -0.77600
Eu558      Eu  0.92367246  0.86872032  0.50484127     2.39800
Eu559      Eu  0.00737312  0.00997508  0.53778809     2.39600
Eu560      Eu  0.93808842  0.97981436  0.50410096     2.38400
Eu561      Eu  0.99388736  0.89940578  0.53862329     2.39900
Eu562      Eu  0.03433135  0.96688107  0.50442407     2.39800
O563        O  0.03409791  0.96796827  0.52962508    -0.92100
O564        O  0.96489464  0.93771978  0.49622179    -0.91000
C565        C  0.99794240  0.88530912  0.47870490     1.03100
C566        C  0.10630030  0.06234661  0.52167723     1.01800
C567        C  0.88267216  0.90383387  0.47764619     1.01200
C568        C  0.94864881  0.79967082  0.52253629     1.03200
C569        C  0.05238552  0.97857609  0.56452533     1.02100
C570        C  0.97941521  0.07768459  0.52088445     1.01000
C571        C  0.01795523  0.02647839  0.47852357     1.01100
C572        C  0.09164149  0.92993827  0.52271996     1.03700
H573        H  0.02450010  0.03754875  0.50908191     0.31000
O574        O  0.00760555  0.00919359  0.51256106    -1.04200
H575        H  0.00496619  0.88094852  0.51005605     0.33100
O576        O  0.99342571  0.89779141  0.51331937    -1.06800
C577        C  0.02229053  0.15849952  0.92287690    -0.01200
C578        C  0.02105843  0.12057138  0.92644600     0.07400
C579        C  0.01737741  0.09332401  0.91526281    -0.07200
C580        C  0.01203933  0.10166709  0.90103410     0.04800
C581        C  0.00909375  0.13738989  0.89768457    -0.14400
C582        C  0.01660271  0.16665631  0.90859524    -0.07700
C583        C  0.01932571  0.10638258  0.94161925     0.05800
C584        C  0.98886430  0.10502160  0.95085962    -0.08900
C585        C  0.98244871  0.08700231  0.96450894     0.00700
C586        C  0.00570908  0.06813078  0.96906977     0.00600
C587        C  0.03756105  0.07137226  0.96008128    -0.12400
C588        C  0.04465648  0.09036622  0.94660207     0.01100
C589        C  0.95223810  0.08911169  0.97360927     0.40400
C590        C  0.07799915  0.09264067  0.93803390     0.37000
C591        C  0.02717158  0.18862569  0.93370042     0.36700
C592        C  0.00731429  0.07179422  0.89011753     0.37500
N593        N  0.92826837  0.09130358  0.98087977    -0.43300
N594        N  0.10459645  0.09435932  0.93112298    -0.43800
N595        N  0.00349576  0.04781828  0.88138354    -0.41100
N596        N  0.03060932  0.21270887  0.94233195    -0.42500
H597        H  0.01447042  0.19424875  0.90618355     0.13600
H598        H  0.01620450  0.06403617  0.91770081     0.10100
H599        H  0.96898915  0.11699678  0.94725697     0.11200
H600        H  0.05632574  0.05780852  0.96336139     0.17000
C601        C  0.86257355  0.27509310  0.86181972    -0.01200
C602        C  0.85602345  0.23544336  0.85754557     0.07400
C603        C  0.81740223  0.20613657  0.85118121    -0.07200
C604        C  0.78534462  0.21548865  0.84939434     0.04800
C605        C  0.79147880  0.25443618  0.85417500    -0.14400
C606        C  0.83033683  0.28427835  0.86012403    -0.07700
C607        C  0.88785022  0.22288564  0.86049036     0.05800
C608        C  0.89780255  0.21951895  0.87475999    -0.08900
C609        C  0.92359053  0.20306922  0.87814206     0.00700
C610        C  0.94102638  0.19070279  0.86711578     0.00600
C611        C  0.93243381  0.19556006  0.85284278    -0.12400
C612        C  0.90587597  0.21125401  0.84946068     0.01100
C613        C  0.92844288  0.19539946  0.89299413     0.40400
C614        C  0.89621752  0.21355636  0.83462716     0.37000
C615        C  0.90216888  0.30677231  0.86793502     0.36700
C616        C  0.74634970  0.18495699  0.84256676     0.37500
N617        N  0.93218713  0.18899692  0.90486789    -0.43300
N618        N  0.88820693  0.21510943  0.82273817    -0.43800
N619        N  0.71502865  0.16105737  0.83701553    -0.41100
N620        N  0.93401396  0.33207887  0.87280461    -0.42500
H621        H  0.83514783  0.31437423  0.86373729     0.13600
H622        H  0.81201061  0.17559306  0.84786900     0.10100
H623        H  0.88344091  0.22756178  0.88330549     0.11200
H624        H  0.94444425  0.18469401  0.84434970     0.17000
C625        C  0.21615165  0.43562824  0.79502804    -0.01200
C626        C  0.24423742  0.44251136  0.78369124     0.07400
C627        C  0.27722381  0.43480445  0.78632506    -0.07200
C628        C  0.28362837  0.42254612  0.79982940     0.04800
C629        C  0.25732699  0.41851599  0.81133823    -0.14400
C630        C  0.22319708  0.42423044  0.80870200    -0.07700
C631        C  0.24322928  0.46227188  0.76968250     0.05800
C632        C  0.23915353  0.49821272  0.76979212    -0.08900
C633        C  0.24173697  0.51993938  0.75719326     0.00700
C634        C  0.25247904  0.50844588  0.74423214     0.00600
C635        C  0.25608404  0.47239000  0.74393722    -0.12400
C636        C  0.25011344  0.44853519  0.75633043     0.01100
C637        C  0.23365006  0.55419819  0.75795103     0.40400
C638        C  0.25047068  0.40975652  0.75489749     0.37000
C639        C  0.18069044  0.44148240  0.79311700     0.36700
C640        C  0.31991849  0.41806578  0.80193305     0.37500
N641        N  0.22583563  0.58076343  0.75862684    -0.43300
N642        N  0.25066296  0.37866372  0.75359790    -0.43800
N643        N  0.34921566  0.41492355  0.80368330    -0.41100
N644        N  0.15263829  0.44680165  0.79162305    -0.42500
H645        H  0.20311127  0.42161981  0.81748825     0.13600
H646        H  0.29990233  0.44093276  0.77804849     0.10100
H647        H  0.23485744  0.51020851  0.77981297     0.11200
H648        H  0.26319496  0.46257984  0.73392743     0.17000
C649        C  0.38238507  0.37170219  0.85714473    -0.01200
C650        C  0.38145993  0.34116006  0.84778432     0.07400
C651        C  0.35037771  0.32412864  0.83702672    -0.07200
C652        C  0.32323804  0.33972467  0.83462005     0.04800
C653        C  0.32562406  0.37196937  0.84350817    -0.14400
C654        C  0.35424620  0.38619245  0.85508369    -0.07700
C655        C  0.41465662  0.32933217  0.84833944     0.05800
C656        C  0.42116877  0.31280798  0.86097121    -0.08900
C657        C  0.45397979  0.30423244  0.86224067     0.00700
C658        C  0.48170266  0.31260091  0.85068191     0.00600
C659        C  0.47410773  0.32789974  0.83788747    -0.12400
C660        C  0.44102639  0.33592036  0.83659302     0.01100
C661        C  0.45849073  0.28751803  0.87565198     0.40400
C662        C  0.43535482  0.35151232  0.82309861     0.37000
C663        C  0.41422602  0.39139318  0.86817606     0.36700
C664        C  0.29715370  0.32535279  0.82193604     0.37500
N665        N  0.46197381  0.27387319  0.88636812    -0.43300
N666        N  0.43058538  0.36345527  0.81220891    -0.43800
N667        N  0.27722909  0.31367252  0.81153715    -0.41100
N668        N  0.43985261  0.40728897  0.87697459    -0.42500
H669        H  0.35666092  0.41098919  0.86198584     0.13600
H670        H  0.34906674  0.30030354  0.82988186     0.10100
H671        H  0.40062903  0.30689060  0.86996204     0.11200
H672        H  0.49413495  0.33373782  0.82875155     0.17000
C673        C  0.09256647  0.21785715  0.85629807    -0.01200
C674        C  0.11115102  0.26167133  0.85848131     0.07400
C675        C  0.09045701  0.27617228  0.86736172    -0.07200
C676        C  0.05233213  0.24798562  0.87401448     0.04800
C677        C  0.03416690  0.20429756  0.87191050    -0.14400
C678        C  0.05475616  0.18986477  0.86301383    -0.07700
C679        C  0.15226916  0.29255835  0.85179758     0.05800
C680        C  0.15659504  0.29367926  0.83682877    -0.08900
C681        C  0.19478811  0.32207369  0.83025447     0.00700
C682        C  0.22988438  0.35044995  0.83864494     0.00600
C683        C  0.22539588  0.34907760  0.85364287    -0.12400
C684        C  0.18741521  0.32068039  0.86019498     0.01100
C685        C  0.19711984  0.32091561  0.81491158     0.40400
C686        C  0.18548699  0.32071204  0.87561217     0.37000
C687        C  0.11171833  0.20065945  0.84727311     0.36700
C688        C  0.03279841  0.26465385  0.88303849     0.37500
N689        N  0.19859711  0.31955855  0.80258112    -0.43300
N690        N  0.18374581  0.32072154  0.88795987    -0.43800
N691        N  0.01766384  0.27868102  0.89026429    -0.41100
N692        N  0.12682108  0.18682182  0.83994300    -0.42500
H693        H  0.04066576  0.15634874  0.86112663     0.13600
H694        H  0.10406866  0.30971339  0.86905097     0.10100
H695        H  0.12986268  0.27238167  0.83022033     0.11200
H696        H  0.25159711  0.37097676  0.86032180     0.17000
C697        C  0.10359845  0.54721036  0.08280428    -0.01200
C698        C  0.09307760  0.53191414  0.09693874     0.07400
C699        C  0.05131631  0.51504010  0.10126357    -0.07200
C700        C  0.02195143  0.51809861  0.09250109     0.04800
C701        C  0.03406078  0.53827445  0.07910746    -0.14400
C702        C  0.07408661  0.55007927  0.07400618    -0.07700
C703        C  0.12613054  0.54070329  0.10806582     0.05800
C704        C  0.15721678  0.58277579  0.11067163    -0.08900
C705        C  0.18644248  0.59411330  0.12192132     0.00700
C706        C  0.18486091  0.56296598  0.13119377     0.00600
C707        C  0.15453125  0.52056616  0.12825846    -0.12400
C708        C  0.12528174  0.50932196  0.11693851     0.01100
C709        C  0.21774594  0.63810923  0.12346585     0.40400
C710        C  0.09465172  0.46539514  0.11473541     0.37000
C711        C  0.14544841  0.56301953  0.07748453     0.36700
C712        C  0.98045573  0.50354433  0.09797180     0.37500
N713        N  0.24258438  0.67350725  0.12451656    -0.43300
N714        N  0.07019152  0.43009031  0.11309293    -0.43800
N715        N  0.94720819  0.49203200  0.10233363    -0.41100
N716        N  0.17907301  0.57588776  0.07325904    -0.42500
H717        H  0.08379455  0.56555740  0.06374333     0.13600
H718        H  0.04251837  0.50283240  0.11200007     0.10100
H719        H  0.15802420  0.60728813  0.10405210     0.11200
H720        H  0.15274427  0.49601042  0.13509286     0.17000
C721        C  0.01186936  0.66373777  0.02810385    -0.01200
C722        C  0.97581608  0.66751356  0.02884427     0.07400
C723        C  0.94019164  0.63595632  0.03572874    -0.07200
C724        C  0.94229932  0.60478338  0.04363599     0.04800
C725        C  0.98054646  0.60516602  0.04480406    -0.14400
C726        C  0.01418057  0.63288857  0.03619106    -0.07700
C727        C  0.97818174  0.70843666  0.02598534     0.05800
C728        C  0.95615762  0.71282652  0.01448433    -0.08900
C729        C  0.95545524  0.75035295  0.01250984     0.00700
C730        C  0.97693788  0.78455513  0.02231957     0.00600
C731        C  0.99928620  0.77964402  0.03372500    -0.12400
C732        C  0.99995553  0.74236862  0.03561315     0.01100
C733        C  0.93176569  0.75206565  0.00044649     0.40400
C734        C  0.02205863  0.73900429  0.04789963     0.37000
C735        C  0.04806269  0.69362663  0.02015569     0.36700
C736        C  0.90614733  0.57520757  0.05166785     0.37500
N737        N  0.91291084  0.75331724  0.99070454    -0.43300
N738        N  0.03968001  0.73595959  0.05768874    -0.43800
N739        N  0.87724318  0.55136923  0.05811146    -0.41100
N740        N  0.07688129  0.71751005  0.01368447    -0.42500
H741        H  0.04376821  0.63357474  0.03698581     0.13600
H742        H  0.91205672  0.63811584  0.03613071     0.10100
H743        H  0.93902678  0.68665019  0.00713085     0.11200
H744        H  0.01591444  0.80477203  0.04147947     0.17000
C745        C  0.97480811  0.18581624  0.03007728    -0.01200
C746        C  0.94442928  0.18845596  0.02163454     0.07400
C747        C  0.90984249  0.15106881  0.01643346    -0.07200
C748        C  0.90712144  0.11203479  0.01838279     0.04800
C749        C  0.93953020  0.10974628  0.02582354    -0.14400
C750        C  0.97183857  0.14675316  0.03224665    -0.07700
C751        C  0.95210156  0.22910402  0.01549925     0.05800
C752        C  0.98531648  0.24961187  0.00590636    -0.08900
C753        C  0.98733319  0.28011249  0.99654469     0.00700
C754        C  0.95577360  0.29097046  0.99669701     0.00600
C755        C  0.92543079  0.27424726  0.00746515    -0.12400
C756        C  0.92326530  0.24331419  0.01680089     0.01100
C757        C  0.02037695  0.29734202  0.98611826     0.40400
C758        C  0.89025585  0.22541790  0.02721095     0.37000
C759        C  0.01055766  0.22301644  0.03600774     0.36700
C760        C  0.87135626  0.07533265  0.01215511     0.37500
N761        N  0.04692602  0.31094411  0.97778457    -0.43300
N762        N  0.86389533  0.21150296  0.03561171    -0.43800
N763        N  0.84270368  0.04616240  0.00705936    -0.41100
N764        N  0.03942890  0.25264456  0.04077515    -0.42500
H765        H  0.99655715  0.14578185  0.03819429     0.13600
H766        H  0.88627978  0.15269987  0.00992794     0.10100
H767        H  0.00785148  0.23922975  0.00487091     0.11200
H768        H  0.90112645  0.28241992  0.00775601     0.17000
C769        C  0.82509991  0.33577093  0.95686942    -0.01200
C770        C  0.84056501  0.35951089  0.94424002     0.07400
C771        C  0.88419546  0.38592855  0.94287691    -0.07200
C772        C  0.91208534  0.38427712  0.95278572     0.04800
C773        C  0.89649202  0.35597393  0.96430831    -0.14400
C774        C  0.85304863  0.33382403  0.96667797    -0.07700
C775        C  0.81260468  0.35145640  0.93147926     0.05800
C776        C  0.77968316  0.36002853  0.93202123    -0.08900
C777        C  0.75164974  0.35004845  0.92039835     0.00700
C778        C  0.75590991  0.33059063  0.90801796     0.00600
C779        C  0.78867099  0.32192000  0.90750118    -0.12400
C780        C  0.81713539  0.33259844  0.91895273     0.01100
C781        C  0.71768588  0.35845075  0.92158670     0.40400
C782        C  0.85052254  0.32334489  0.91764995     0.37000
C783        C  0.78063044  0.30991101  0.95932688     0.36700
C784        C  0.95658291  0.40874409  0.95018746     0.37500
N785        N  0.69026452  0.36493017  0.92236970    -0.43300
N786        N  0.87759914  0.31642621  0.91661592    -0.43800
N787        N  0.99229749  0.42837307  0.94817480    -0.41100
N788        N  0.74499594  0.28944342  0.96137870    -0.42500
H789        H  0.84056734  0.31139500  0.97534595     0.13600
H790        H  0.89649130  0.40521380  0.93342159     0.10100
H791        H  0.77569989  0.37423455  0.94157844     0.11200
H792        H  0.79240242  0.30724388  0.89801070     0.17000
C793        C  0.92130305  0.40933046  0.00904267    -0.01200
C794        C  0.96212509  0.43357764  0.01510452     0.07400
C795        C  0.99343730  0.42557203  0.01048651    -0.07200
C796        C  0.98534813  0.39571387  0.99979752     0.04800
C797        C  0.94426216  0.37021052  0.99424265    -0.14400
C798        C  0.91261980  0.37747252  0.99898633    -0.07700
C799        C  0.97299862  0.46705870  0.02625524     0.05800
C800        C  0.94761341  0.45759575  0.03838714    -0.08900
C801        C  0.95691211  0.48784449  0.04907904     0.00700
C802        C  0.99323301  0.52791352  0.04817260     0.00600
C803        C  0.01891753  0.53760507  0.03622675    -0.12400
C804        C  0.00895015  0.50792891  0.02523113     0.01100
C805        C  0.92774048  0.47795471  0.06059474     0.40400
C806        C  0.03545676  0.52093569  0.01282410     0.37000
C807        C  0.88808681  0.41747700  0.01243345     0.36700
C808        C  0.02062143  0.39456162  0.99389960     0.37500
N809        N  0.90413205  0.47033213  0.06974024    -0.43300
N810        N  0.05689972  0.53145562  0.00292637    -0.43800
N811        N  0.04949896  0.39488630  0.98910780    -0.41100
N812        N  0.86128439  0.42384751  0.01504212    -0.42500
H813        H  0.88110450  0.35853362  0.99473570     0.13600
H814        H  0.02482610  0.44345302  0.01501744     0.10100
H815        H  0.92024613  0.42650973  0.03950938     0.11200
H816        H  0.04645061  0.56867472  0.03540760     0.17000
C817        C  0.00487360  0.63872174  0.17790162    -0.01200
C818        C  0.03979752  0.65700647  0.18738407     0.07400
C819        C  0.04860016  0.69361363  0.19490616    -0.07200
C820        C  0.02663317  0.71450911  0.19185315     0.04800
C821        C  0.99572511  0.69933664  0.18088277    -0.14400
C822        C  0.98327176  0.65998287  0.17468966    -0.07700
C823        C  0.07134085  0.64290634  0.18775651     0.05800
C824        C  0.08972752  0.64158695  0.17484600    -0.08900
C825        C  0.12249272  0.63298500  0.17453499     0.00700
C826        C  0.13915005  0.62712217  0.18744224     0.00600
C827        C  0.11959179  0.62668173  0.20035141    -0.12400
C828        C  0.08590888  0.63423082  0.20058667     0.01100
C829        C  0.13709441  0.62879714  0.16071170     0.40400
C830        C  0.06632962  0.63216867  0.21406895     0.37000
C831        C  0.99214491  0.59924898  0.17077657     0.36700
C832        C  0.03800802  0.75278601  0.19958973     0.37500
N833        N  0.14815471  0.62501990  0.14956966    -0.43300
N834        N  0.05045935  0.63023320  0.22486934    -0.43800
N835        N  0.04710537  0.78321657  0.20595346    -0.41100
N836        N  0.98213188  0.56758279  0.16510886    -0.42500
H837        H  0.95929527  0.64767002  0.16636574     0.13600
H838        H  0.07474217  0.70769830  0.20242581     0.10100
H839        H  0.07880850  0.64796949  0.16488607     0.11200
H840        H  0.13110979  0.62121275  0.21034163     0.17000
C841        C  0.90838268  0.73651360  0.12140484    -0.01200
C842        C  0.90858216  0.77473064  0.12008609     0.07400
C843        C  0.91387613  0.79848828  0.13248204    -0.07200
C844        C  0.92349356  0.78720070  0.14570426     0.04800
C845        C  0.92756892  0.75124899  0.14677634    -0.14400
C846        C  0.91765599  0.72499577  0.13469436    -0.07700
C847        C  0.91250204  0.79486063  0.10585592     0.05800
C848        C  0.87695417  0.78485612  0.09743111    -0.08900
C849        C  0.88072777  0.80504775  0.08423820     0.00700
C850        C  0.92087360  0.83580935  0.07918728     0.00600
C851        C  0.95619871  0.84506122  0.08769660    -0.12400
C852        C  0.95234640  0.82517478  0.10080475     0.01100
C853        C  0.84292897  0.79288091  0.07608445     0.40400
C854        C  0.99002962  0.83652980  0.10895755     0.37000
C855        C  0.90323850  0.71101195  0.10898426     0.36700
C856        C  0.93366327  0.81551766  0.15770742     0.37500
N857        N  0.81242629  0.78291967  0.06962757    -0.43300
N858        N  0.02021238  0.84563228  0.11549237    -0.43800
N859        N  0.94206947  0.83834636  0.16730447    -0.41100
N860        N  0.89923402  0.69059849  0.09902622    -0.42500
H861        H  0.92194158  0.69806440  0.13519288     0.13600
H862        H  0.91416585  0.82793349  0.13157952     0.10100
H863        H  0.84620445  0.76145644  0.10121253     0.11200
H864        H  0.98729238  0.86861865  0.08423553     0.17000
C865        C  0.71970069  0.41639706  0.27801579    -0.01200
C866        C  0.70104597  0.44075112  0.27480864     0.07400
C867        C  0.67380782  0.44224382  0.28487334    -0.07200
C868        C  0.66387396  0.41902050  0.29760613     0.04800
C869        C  0.68135728  0.39340171  0.30057002    -0.14400
C870        C  0.71000648  0.39339748  0.29076254    -0.07700
C871        C  0.70344678  0.45853471  0.26019478     0.05800
C872        C  0.68957298  0.43045771  0.24857964    -0.08900
C873        C  0.68105198  0.44170473  0.23526215     0.00700
C874        C  0.68696944  0.48232576  0.23311644     0.00600
C875        C  0.70519206  0.51205925  0.24425374    -0.12400
C876        C  0.71295419  0.50037940  0.25779130     0.01100
C877        C  0.66120906  0.40900843  0.22452720     0.40400
C878        C  0.72807964  0.53108760  0.26922829     0.37000
C879        C  0.74801752  0.41343391  0.26820056     0.36700
C880        C  0.63573623  0.42230992  0.30740792     0.37500
N881        N  0.64515920  0.38257399  0.21601361    -0.43300
N882        N  0.73997653  0.55585548  0.27835084    -0.43800
N883        N  0.61317947  0.42502263  0.31524178    -0.41100
N884        N  0.77038532  0.41065738  0.26029691    -0.42500
H885        H  0.72393849  0.37415848  0.29280759     0.13600
H886        H  0.65866222  0.46017291  0.28248958     0.10100
H887        H  0.68155663  0.39814129  0.25024161     0.11200
H888        H  0.70908002  0.54302076  0.24288439     0.17000
C889        C  0.59401622  0.58772931  0.20393089    -0.01200
C890        C  0.57015618  0.57163865  0.19123218     0.07400
C891        C  0.57812779  0.54600552  0.18223655    -0.07200
C892        C  0.60602134  0.53270455  0.18656310     0.04800
C893        C  0.62582150  0.54461639  0.20010778    -0.14400
C894        C  0.62147951  0.57409925  0.20826872    -0.07700
C895        C  0.53220509  0.57516600  0.18872863     0.05800
C896        C  0.53647255  0.61318821  0.18404194    -0.08900
C897        C  0.50163336  0.61880475  0.18331132     0.00700
C898        C  0.46147831  0.58607025  0.18758840     0.00600
C899        C  0.45745289  0.54785727  0.19212525    -0.12400
C900        C  0.49212311  0.54208657  0.19257035     0.01100
C901        C  0.50862544  0.65915961  0.17870538     0.40400
C902        C  0.48609593  0.50216653  0.19732110     0.37000
C903        C  0.58702519  0.61418481  0.21352577     0.36700
C904        C  0.61066548  0.50327626  0.17770808     0.37500
N905        N  0.51449791  0.69154587  0.17493400    -0.43300
N906        N  0.48148662  0.47019984  0.20103574    -0.43800
N907        N  0.61477934  0.47975684  0.17071163    -0.41100
N908        N  0.58125127  0.63525155  0.22122538    -0.42500
H909        H  0.63560556  0.58256117  0.21886805     0.13600
H910        H  0.56019544  0.53381076  0.17238671     0.10100
H911        H  0.56731083  0.63886553  0.18124568     0.11200
H912        H  0.42701296  0.52222691  0.19529780     0.17000
C913        C  0.83710326  0.62951091  0.17148029    -0.01200
C914        C  0.82847915  0.63522335  0.18574913     0.07400
C915        C  0.85978307  0.66883858  0.19376236    -0.07200
C916        C  0.89893529  0.69651034  0.18785018     0.04800
C917        C  0.90779420  0.69068590  0.17364079    -0.14400
C918        C  0.87653818  0.65716192  0.16556964    -0.07700
C919        C  0.78773526  0.60612534  0.19277874     0.05800
C920        C  0.77627110  0.56408904  0.19484952    -0.08900
C921        C  0.73879738  0.53584709  0.20169994     0.00700
C922        C  0.71241601  0.54979061  0.20731778     0.00600
C923        C  0.72463518  0.59236983  0.20545603    -0.12400
C924        C  0.76117394  0.62009013  0.19798067     0.01100
C925        C  0.72729496  0.49230751  0.20164147     0.40400
C926        C  0.76947224  0.66198222  0.19496009     0.37000
C927        C  0.80572794  0.59623105  0.16257480     0.36700
C928        C  0.92895369  0.73157627  0.19647274     0.37500
N929        N  0.71964235  0.45781890  0.20105396    -0.43300
N930        N  0.77594211  0.69535829  0.19228946    -0.43800
N931        N  0.95249605  0.75966466  0.20352447    -0.41100
N932        N  0.78072178  0.56970797  0.15533727    -0.42500
H933        H  0.88303372  0.65244654  0.15468323     0.13600
H934        H  0.85354478  0.67348552  0.20471820     0.10100
H935        H  0.79639078  0.55303240  0.19080179     0.11200
H936        H  0.70517015  0.60395950  0.20955514     0.17000
C937        C  0.32745773  0.76084437  0.61315418    -0.01200
C938        C  0.36880024  0.79450881  0.61094154     0.07400
C939        C  0.40102709  0.79880463  0.62011638    -0.07200
C940        C  0.39261876  0.77180281  0.63171116     0.04800
C941        C  0.35103740  0.73897960  0.63421237    -0.14400
C942        C  0.31912508  0.73340629  0.62461496    -0.07700
C943        C  0.37813965  0.82942694  0.60086681     0.05800
C944        C  0.39574493  0.87018624  0.60657890    -0.08900
C945        C  0.39992748  0.90341723  0.59824278     0.00700
C946        C  0.38474129  0.89593381  0.58399258     0.00600
C947        C  0.37129124  0.85627984  0.57780836    -0.12400
C948        C  0.36856778  0.82322499  0.58608547     0.01100
C949        C  0.41813675  0.94458312  0.60479170     0.40400
C950        C  0.35553862  0.78328642  0.57926295     0.37000
C951        C  0.29238731  0.75502686  0.60447224     0.36700
C952        C  0.42689072  0.78083076  0.64138767     0.37500
N953        N  0.43277162  0.97753797  0.61005469    -0.43300
N954        N  0.34526712  0.75127963  0.57380483    -0.43800
N955        N  0.45462987  0.78856915  0.64907340    -0.41100
N956        N  0.26398481  0.74974937  0.59755549    -0.42500
H957        H  0.28715684  0.70812736  0.62630418     0.13600
H958        H  0.43274357  0.82479239  0.61860497     0.10100
H959        H  0.40463744  0.87577654  0.61780390     0.11200
H960        H  0.36019322  0.85020786  0.56680927     0.17000
C961        C  0.28867812  0.97703196  0.53532122    -0.01200
C962        C  0.25075122  0.93822995  0.53376829     0.07400
C963        C  0.24962945  0.90113588  0.53787996    -0.07200
C964        C  0.28316909  0.90272475  0.54541407     0.04800
C965        C  0.31917348  0.94200995  0.54855446    -0.14400
C966        C  0.32249472  0.97863799  0.54281051    -0.07700
C967        C  0.21017433  0.93592650  0.53056882     0.05800
C968        C  0.20283583  0.94857344  0.51726465    -0.08900
C969        C  0.16458180  0.94661673  0.51422539     0.00700
C970        C  0.13227237  0.93076218  0.52459800     0.00600
C971        C  0.14004667  0.91779151  0.53783022    -0.12400
C972        C  0.17847948  0.92099662  0.54096933     0.01100
C973        C  0.16007206  0.96151835  0.50043815     0.40400
C974        C  0.18527310  0.91071068  0.55528107     0.37000
C975        C  0.29258692  0.01592090  0.53042426     0.36700
C976        C  0.27766801  0.86414844  0.55138529     0.37500
N977        N  0.15692339  0.97380871  0.48939049    -0.43300
N978        N  0.19069137  0.90272336  0.56677360    -0.43800
N979        N  0.27345463  0.83331256  0.55613664    -0.41100
N980        N  0.29624987  0.04723147  0.52638540    -0.42500
H981        H  0.34997981  0.00888598  0.54530721     0.13600
H982        H  0.22080737  0.87115693  0.53646999     0.10100
H983        H  0.22718549  0.96025344  0.50926577     0.11200
H984        H  0.11651617  0.90633608  0.54608512     0.17000
C985        C  0.58844499  0.09148117  0.45686005    -0.01200
C986        C  0.55971490  0.07499850  0.44534103     0.07400
C987        C  0.53009108  0.03176715  0.44488733    -0.07200
C988        C  0.53136124  0.00454993  0.45510304     0.04800
C989        C  0.56277727  0.02061150  0.46584957    -0.14400
C990        C  0.59020523  0.06423019  0.46683047    -0.07700
C991        C  0.56663879  0.10079962  0.43240402     0.05800
C992        C  0.59432281  0.10146008  0.42214308    -0.08900
C993        C  0.60634641  0.12873472  0.41048735     0.00700
C994        C  0.58983722  0.15569647  0.40877430     0.00600
C995        C  0.56120960  0.15416122  0.41894597    -0.12400
C996        C  0.55010513  0.12750076  0.43081510     0.01100
C997        C  0.63555480  0.12808129  0.40049638     0.40400
C998        C  0.52305580  0.12914182  0.44148697     0.37000
C999        C  0.61940768  0.13577052  0.45773943     0.36700
C1000       C  0.50362624  0.95975087  0.45340331     0.37500
N1001       N  0.65922457  0.12778033  0.39256625    -0.43300
N1002       N  0.50164209  0.13073571  0.45009787    -0.43800
N1003       N  0.48174433  0.92376680  0.45211990    -0.41100
N1004       N  0.64410514  0.17128606  0.45840360    -0.42500
H1005       H  0.61633869  0.07662001  0.47433160     0.13600
H1006       H  0.50822346  0.01891041  0.43594251     0.10100
H1007       H  0.60751946  0.08127361  0.42348837     0.11200
H1008       H  0.54842597  0.17475967  0.41786971     0.17000
C1009       C  0.75393277  0.96361187  0.50351214    -0.01200
C1010       C  0.72483416  0.95081596  0.51470841     0.07400
C1011       C  0.73508894  0.94108215  0.52801631    -0.07200
C1012       C  0.77367342  0.94316037  0.53022583     0.04800
C1013       C  0.80207626  0.95348343  0.51874541    -0.14400
C1014       C  0.79175570  0.96428314  0.50551500    -0.07700
C1015       C  0.68453514  0.94958008  0.51253652     0.05800
C1016       C  0.65117631  0.91408760  0.50591724    -0.08900
C1017       C  0.61890578  0.91693811  0.49907854     0.00700
C1018       C  0.62061034  0.95593876  0.49853739     0.00600
C1019       C  0.65056653  0.98955105  0.50694624    -0.12400
C1020       C  0.68247194  0.98646125  0.51402447     0.01100
C1021       C  0.58650764  0.88078050  0.49144393     0.40400
C1022       C  0.71520966  0.02261167  0.52156228     0.37000
C1023       C  0.74578217  0.97695375  0.48993908     0.36700
C1024       C  0.78389655  0.93681910  0.54457196     0.37500
N1025       N  0.56020206  0.85191224  0.48537767    -0.43300
N1026       N  0.74164104  0.05111642  0.52773440    -0.43800
N1027       N  0.79190784  0.93206676  0.55614780    -0.41100
N1028       N  0.73911612  0.98801811  0.47917718    -0.42500
H1029       H  0.81309008  0.97304463  0.49660714     0.13600
H1030       H  0.71326709  0.93271404  0.53676214     0.10100
H1031       H  0.65228145  0.88536677  0.50500602     0.11200
H1032       H  0.65199602  0.01963105  0.50661425     0.17000
C1033       C  0.40975152  0.91645426  0.52730221    -0.01200
C1034       C  0.45367742  0.94242089  0.52910257     0.07400
C1035       C  0.46938354  0.96225681  0.54239787    -0.07200
C1036       C  0.44246087  0.95734121  0.55363643     0.04800
C1037       C  0.39853742  0.93109950  0.55192710    -0.14400
C1038       C  0.38284108  0.91061946  0.53870151    -0.07700
C1039       C  0.48397871  0.95170017  0.51720022     0.05800
C1040       C  0.51148234  0.99387654  0.51345834    -0.08900
C1041       C  0.54266919  0.00474640  0.50314657     0.00700
C1042       C  0.54603377  0.97300730  0.49595772     0.00600
C1043       C  0.51834428  0.93081292  0.49960803    -0.12400
C1044       C  0.48807018  0.91998609  0.51023835     0.01100
C1045       C  0.57253658  0.04867666  0.50109843     0.40400
C1046       C  0.46323307  0.87637904  0.51428826     0.37000
C1047       C  0.39127331  0.89740989  0.51365588     0.36700
C1048       C  0.46069494  0.98230591  0.56640419     0.37500
N1049       N  0.59619183  0.08430819  0.50000142    -0.43300
N1050       N  0.44337665  0.84137957  0.51749280    -0.43800
N1051       N  0.47564071  0.00276548  0.57654113    -0.41100
N1052       N  0.37636855  0.88205629  0.50273370    -0.42500
H1053       H  0.34940396  0.89089361  0.53707424     0.13600
H1054       H  0.50296155  0.98277699  0.54387430     0.10100
H1055       H  0.50930832  0.01861318  0.51893750     0.11200
H1056       H  0.52110221  0.90622717  0.49429348     0.17000
C1057       C  0.26079892  0.90698162  0.67598720    -0.01200
C1058       C  0.24707792  0.88112082  0.68819306     0.07400
C1059       C  0.21745971  0.88257592  0.69709793    -0.07200
C1060       C  0.19839675  0.90575840  0.69318413     0.04800
C1061       C  0.20898125  0.92807824  0.68019661    -0.14400
C1062       C  0.24169975  0.93013936  0.67208696    -0.07700
C1063       C  0.25706505  0.84697447  0.69020970     0.05800
C1064       C  0.29758996  0.85646376  0.69434558    -0.08900
C1065       C  0.30819436  0.82478723  0.69499602     0.00700
C1066       C  0.27812429  0.78283749  0.69111305     0.00600
C1067       C  0.23735437  0.77353631  0.68737159    -0.12400
C1068       C  0.22663909  0.80484696  0.68698257     0.01100
C1069       C  0.35045205  0.83662602  0.69915344     0.40400
C1070       C  0.18440965  0.79314169  0.68272902     0.37000
C1071       C  0.29120179  0.90674502  0.66648970     0.36700
C1072       C  0.16571045  0.90368369  0.70207184     0.37500
N1073       N  0.38436525  0.84647812  0.70259836    -0.43300
N1074       N  0.15057892  0.78383727  0.67936359    -0.43800
N1075       N  0.13953308  0.90215618  0.70917369    -0.41100
N1076       N  0.31555634  0.90651494  0.65887589    -0.42500
H1077       H  0.24929772  0.94616442  0.66189685     0.13600
H1078       H  0.20694633  0.86306208  0.70655494     0.10100
H1079       H  0.32112737  0.88877438  0.69684898     0.11200
H1080       H  0.21358857  0.74147646  0.68462637     0.17000
C1081       C  0.17561137  0.02002144  0.62339165    -0.01200
C1082       C  0.13598304  0.01494207  0.62005552     0.07400
C1083       C  0.10665540  0.00407746  0.63099494    -0.07200
C1084       C  0.11407740  0.99283356  0.64453702     0.04800
C1085       C  0.15158775  0.99264459  0.64733056    -0.14400
C1086       C  0.18322786  0.00906442  0.63700602    -0.07700
C1087       C  0.12068743  0.01064899  0.60500993     0.05800
C1088       C  0.11413255  0.97528621  0.59724107    -0.08900
C1089       C  0.09265732  0.96439077  0.58409356     0.00700
C1090       C  0.07774417  0.98985203  0.57815102     0.00600
C1091       C  0.08616025  0.02651461  0.58575515    -0.12400
C1092       C  0.10689227  0.03669143  0.59910958     0.01100
C1093       C  0.08529385  0.92589467  0.57741248     0.40400
C1094       C  0.11315348  0.07362069  0.60666056     0.37000
C1095       C  0.20781268  0.03382544  0.61272005     0.36700
C1096       C  0.08128508  0.97837633  0.65501355     0.37500
N1097       N  0.07907273  0.89467990  0.57226390    -0.43300
N1098       N  0.11815458  0.10325393  0.61269203    -0.43800
N1099       N  0.05481178  0.96681409  0.66334143    -0.41100
N1100       N  0.23376201  0.04514738  0.60420069    -0.42500
H1101       H  0.21227244  0.00933522  0.63904357     0.13600
H1102       H  0.07628212  0.00053222  0.62857334     0.10100
H1103       H  0.12406547  0.95473514  0.60186285     0.11200
H1104       H  0.07533177  0.04673545  0.58152737     0.17000
C1105       C  0.32597915  0.40874593  0.70203019    -0.01200
C1106       C  0.32232343  0.38592701  0.68943383     0.07400
C1107       C  0.31276591  0.39844361  0.67647303    -0.07200
C1108       C  0.30756716  0.43358499  0.67588360     0.04800
C1109       C  0.31156837  0.45673582  0.68851436    -0.14400
C1110       C  0.32034244  0.44344080  0.70149651    -0.07700
C1111       C  0.33301272  0.35208703  0.68968167     0.05800
C1112       C  0.30888813  0.31613172  0.69799518    -0.08900
C1113       C  0.32541005  0.29128837  0.70268102     0.00700
C1114       C  0.36680178  0.30270797  0.69908247     0.00600
C1115       C  0.38834834  0.33510812  0.68915296    -0.12400
C1116       C  0.37163617  0.35949368  0.68431154     0.01100
C1117       C  0.30134778  0.25776477  0.71257951     0.40400
C1118       C  0.39666153  0.39457649  0.67504160     0.37000
C1119       C  0.33785206  0.39856248  0.71553894     0.36700
C1120       C  0.30079077  0.44656755  0.66204705     0.37500
N1121       N  0.28175006  0.23082752  0.72047151    -0.43300
N1122       N  0.41654526  0.42248325  0.66751723    -0.43800
N1123       N  0.29552472  0.45719269  0.65097432    -0.41100
N1124       N  0.34753675  0.39034699  0.72630878    -0.42500
H1125       H  0.32357011  0.46066433  0.71129035     0.13600
H1126       H  0.31070763  0.38150886  0.66672745     0.10100
H1127       H  0.27878273  0.30985086  0.70194079     0.11200
H1128       H  0.42019975  0.34415889  0.68631763     0.17000
C1129       C  0.46596588  0.21825735  0.74487401    -0.01200
C1130       C  0.45084985  0.21818157  0.75868015     0.07400
C1131       C  0.41412114  0.22005899  0.76002469    -0.07200
C1132       C  0.39560983  0.22723054  0.74803705     0.04800
C1133       C  0.41403965  0.23286460  0.73443969    -0.14400
C1134       C  0.44752641  0.22559488  0.73287614    -0.07700
C1135       C  0.47694287  0.22425965  0.77169272     0.05800
C1136       C  0.51525202  0.26220666  0.77315524    -0.08900
C1137       C  0.54019386  0.27121594  0.78547126     0.00700
C1138       C  0.52705362  0.24175302  0.79671219     0.00600
C1139       C  0.48895889  0.20339371  0.79516440    -0.12400
C1140       C  0.46370711  0.19471676  0.78284871     0.01100
C1141       C  0.57952866  0.31065600  0.78610540     0.40400
C1142       C  0.42455135  0.15531397  0.78181643     0.37000
C1143       C  0.50229770  0.21398802  0.74295147     0.36700
C1144       C  0.36075239  0.23381420  0.75019414     0.37500
N1145       N  0.61093949  0.34234300  0.78655898    -0.43300
N1146       N  0.39310839  0.12373952  0.78095506    -0.43800
N1147       N  0.33270457  0.23891569  0.75189689    -0.41100
N1148       N  0.53139796  0.21046651  0.74151477    -0.42500
H1149       H  0.46221013  0.23027256  0.72253156     0.13600
H1150       H  0.40209365  0.21972620  0.77058454     0.10100
H1151       H  0.52545244  0.28523724  0.76466345     0.11200
H1152       H  0.47844804  0.18056002  0.80371843     0.17000
C1153       C  0.28816158  0.07296030  0.67650230    -0.01200
C1154       C  0.27418849  0.09345441  0.68586619     0.07400
C1155       C  0.23097299  0.07455524  0.68837213    -0.07200
C1156       C  0.20225831  0.03560298  0.68223445     0.04800
C1157       C  0.21619998  0.01519750  0.67294180    -0.14400
C1158       C  0.25913152  0.03430483  0.67008084    -0.07700
C1159       C  0.30369366  0.13451071  0.69310527     0.05800
C1160       C  0.33088506  0.16931962  0.68480699    -0.08900
C1161       C  0.35821249  0.20859590  0.69112090     0.00700
C1162       C  0.35821631  0.21418045  0.70611307     0.00600
C1163       C  0.33112367  0.17928198  0.71440821    -0.12400
C1164       C  0.30413741  0.13986635  0.70810705     0.01100
C1165       C  0.38687510  0.24198401  0.68190280     0.40400
C1166       C  0.27751363  0.10532264  0.71733744     0.37000
C1167       C  0.33215666  0.09010945  0.67367350     0.36700
C1168       C  0.15872299  0.01614632  0.68614729     0.37500
N1169       N  0.40951801  0.26826005  0.67427476    -0.43300
N1170       N  0.25598685  0.07770752  0.72473158    -0.43800
N1171       N  0.12390395  0.00048960  0.68941835    -0.41100
N1172       N  0.36739993  0.10377876  0.67135747    -0.42500
H1173       H  0.27000448  0.01881599  0.66294304     0.13600
H1174       H  0.21961361  0.09004705  0.69533651     0.10100
H1175       H  0.33068960  0.16585080  0.67328577     0.11200
H1176       H  0.33043958  0.18290387  0.72585433     0.17000
C1177       C  0.64238719  0.04602577  0.34570880    -0.01200
C1178       C  0.67807483  0.04908457  0.35246837     0.07400
C1179       C  0.70770031  0.08745972  0.35876230    -0.07200
C1180       C  0.70202050  0.12218036  0.35880612     0.04800
C1181       C  0.66543291  0.11906912  0.35253739    -0.14400
C1182       C  0.63632787  0.08079894  0.34578396    -0.07700
C1183       C  0.68644899  0.01358042  0.35334519     0.05800
C1184       C  0.72115918  0.01744067  0.34604759    -0.08900
C1185       C  0.73940537  0.99364115  0.35003138     0.00700
C1186       C  0.72289806  0.96518621  0.36152896     0.00600
C1187       C  0.68505126  0.95748061  0.36761043    -0.12400
C1188       C  0.66682187  0.98151707  0.36363190     0.01100
C1189       C  0.77744317  0.00193419  0.34303891     0.40400
C1190       C  0.63035684  0.97550438  0.37118138     0.37000
C1191       C  0.61203467  0.00787014  0.33846445     0.36700
C1192       C  0.73513555  0.16076531  0.36509772     0.37500
N1193       N  0.80792137  0.00878021  0.33736687    -0.43300
N1194       N  0.60096993  0.97054853  0.37717089    -0.43800
N1195       N  0.76180575  0.19152085  0.37016991    -0.41100
N1196       N  0.58770332  0.97738552  0.33258281    -0.42500
H1197       H  0.60841543  0.07774134  0.34072456     0.13600
H1198       H  0.73560069  0.09024007  0.36376503     0.10100
H1199       H  0.73621374  0.04171037  0.33803806     0.11200
H1200       H  0.67220361  0.93597370  0.37652088     0.17000
C1201       C  0.76353228  0.89020054  0.42356973    -0.01200
C1202       C  0.79467910  0.87894263  0.42365375     0.07400
C1203       C  0.80883193  0.87228854  0.41058324    -0.07200
C1204       C  0.79573287  0.88121586  0.39758019     0.04800
C1205       C  0.76811189  0.89699690  0.39758925    -0.14400
C1206       C  0.75039667  0.89895596  0.41058019    -0.07700
C1207       C  0.81882974  0.88326714  0.43698172     0.05800
C1208       C  0.80397144  0.85034702  0.44688301    -0.08900
C1209       C  0.82470156  0.85581336  0.46009630     0.00700
C1210       C  0.86040482  0.89511340  0.46363720     0.00600
C1211       C  0.87536098  0.92768327  0.45356639    -0.12400
C1212       C  0.85526734  0.92193162  0.44032008     0.01100
C1213       C  0.80774928  0.82132732  0.47005506     0.40400
C1214       C  0.87228615  0.95639363  0.43032551     0.37000
C1215       C  0.74815959  0.89742380  0.43677822     0.36700
C1216       C  0.81385318  0.87760184  0.38445626     0.37500
N1217       N  0.79451371  0.79385134  0.47810464    -0.43300
N1218       N  0.88590946  0.98377801  0.42223902    -0.43800
N1219       N  0.82827251  0.87446254  0.37393542    -0.41100
N1220       N  0.73610336  0.90324315  0.44741202    -0.42500
H1221       H  0.72970779  0.91176322  0.41072369     0.13600
H1222       H  0.83271915  0.86352232  0.41059515     0.10100
H1223       H  0.77580725  0.82067592  0.44438214     0.11200
H1224       H  0.90308094  0.95781067  0.45601923     0.17000
C1225       C  0.57602678  0.55202674  0.36241719    -0.01200
C1226       C  0.59838289  0.54229326  0.35243876     0.07400
C1227       C  0.60577227  0.56059512  0.33882014    -0.07200
C1228       C  0.58762176  0.58436448  0.33461525     0.04800
C1229       C  0.56147805  0.59014808  0.34410964    -0.14400
C1230       C  0.55747124  0.57538919  0.35815281    -0.07700
C1231       C  0.60749203  0.50768706  0.35503291     0.05800
C1232       C  0.57382742  0.46759712  0.35843608    -0.08900
C1233       C  0.57930728  0.43288824  0.35957764     0.00700
C1234       C  0.61872412  0.43740927  0.35684988     0.00600
C1235       C  0.65292823  0.47756271  0.35395547    -0.12400
C1236       C  0.64764247  0.51267351  0.35308180     0.01100
C1237       C  0.54437890  0.39305670  0.36402191     0.40400
C1238       C  0.68379603  0.55344957  0.35032744     0.37000
C1239       C  0.56979202  0.53636749  0.37685922     0.36700
C1240       C  0.59251604  0.59856341  0.32000150     0.37500
N1241       N  0.51679249  0.36122202  0.36782591    -0.43300
N1242       N  0.71279339  0.58618389  0.34817323    -0.43800
N1243       N  0.59663679  0.61038001  0.30834349    -0.41100
N1244       N  0.56485935  0.52371635  0.38842024    -0.42500
H1245       H  0.53712559  0.57932003  0.36547007     0.13600
H1246       H  0.62277572  0.55337586  0.33103022     0.10100
H1247       H  0.54282021  0.46317108  0.35996520     0.11200
H1248       H  0.68352479  0.48131623  0.35207596     0.17000
C1249       C  0.50900247  0.67117361  0.28903537    -0.01200
C1250       C  0.46757868  0.66258042  0.28646614     0.07400
C1251       C  0.44015923  0.65066791  0.29808807    -0.07200
C1252       C  0.45200057  0.64372732  0.31163449     0.04800
C1253       C  0.49166802  0.64746110  0.31377507    -0.14400
C1254       C  0.52064950  0.66343585  0.30257754    -0.07700
C1255       C  0.45069672  0.66113580  0.27164987     0.05800
C1256       C  0.45410907  0.63565548  0.26117691    -0.08900
C1257       C  0.43543997  0.62996249  0.24758605     0.00700
C1258       C  0.41106524  0.64854615  0.24431044     0.00600
C1259       C  0.40892637  0.67533958  0.25458864    -0.12400
C1260       C  0.42863496  0.68195131  0.26806668     0.01100
C1261       C  0.44330266  0.60628788  0.23701844     0.40400
C1262       C  0.42624117  0.71068123  0.27797568     0.37000
C1263       C  0.53957420  0.68652393  0.27777439     0.36700
C1264       C  0.42178536  0.63027604  0.32299302     0.37500
N1265       N  0.45000492  0.58781835  0.22846905    -0.43300
N1266       N  0.42449920  0.73377030  0.28593502    -0.43800
N1267       N  0.39743331  0.61965017  0.33204717    -0.41100
N1268       N  0.56383480  0.69883026  0.26866616    -0.42500
H1269       H  0.55122182  0.66654012  0.30402338     0.13600
H1270       H  0.40840287  0.64428795  0.29640958     0.10100
H1271       H  0.47100837  0.61952824  0.26368422     0.11200
H1272       H  0.39106606  0.69056917  0.25221958     0.17000
C1273       C  0.63623148  0.73050996  0.34325075    -0.01200
C1274       C  0.62266303  0.75327798  0.35168519     0.07400
C1275       C  0.57929982  0.73626585  0.35336852    -0.07200
C1276       C  0.55007222  0.69739699  0.34721298     0.04800
C1277       C  0.56354285  0.67564613  0.33831710    -0.14400
C1278       C  0.60677157  0.69263466  0.33650506    -0.07700
C1279       C  0.65292614  0.79527239  0.35835034     0.05800
C1280       C  0.68401149  0.82653186  0.34976387    -0.08900
C1281       C  0.71338816  0.86601781  0.35537858     0.00700
C1282       C  0.71091067  0.87625592  0.36975366     0.00600
C1283       C  0.67985975  0.84537872  0.37841686    -0.12400
C1284       C  0.65120089  0.80513416  0.37291873     0.01100
C1285       C  0.74747563  0.89415090  0.34633648     0.40400
C1286       C  0.62106934  0.77448212  0.38258903     0.37000
C1287       C  0.68017211  0.74420590  0.34181818     0.36700
C1288       C  0.50667863  0.67888337  0.35116358     0.37500
N1289       N  0.77480205  0.91545184  0.33885159    -0.43300
N1290       N  0.59684531  0.75018487  0.39040130    -0.43800
N1291       N  0.47209378  0.66391236  0.35463919    -0.41100
N1292       N  0.71535859  0.75509692  0.34065285    -0.42500
H1293       H  0.61768992  0.67584578  0.33007603     0.13600
H1294       H  0.56807633  0.75308709  0.35970785     0.10100
H1295       H  0.68573927  0.81994762  0.33856998     0.11200
H1296       H  0.67810188  0.85274631  0.38951519     0.17000
C1297       C  0.87086152  0.95228823  0.10563256    -0.01200
C1298       C  0.87757437  0.99166994  0.11029369     0.07400
C1299       C  0.89467942  0.02562216  0.10080478    -0.07200
C1300       C  0.90563178  0.02094438  0.08688056     0.04800
C1301       C  0.89997392  0.98177362  0.08233146    -0.14400
C1302       C  0.88229254  0.94774209  0.09182569    -0.07700
C1303       C  0.86487491  0.99669589  0.12485143     0.05800
C1304       C  0.88518242  0.99157018  0.13675212    -0.08900
C1305       C  0.86754816  0.98500763  0.15036013     0.00700
C1306       C  0.82872768  0.98307714  0.15212950     0.00600
C1307       C  0.81148041  0.99375370  0.14058462    -0.12400
C1308       C  0.82920760  0.00043743  0.12697019     0.01100
C1309       C  0.88843726  0.97771318  0.16216988     0.40400
C1310       C  0.80800603  0.00705173  0.11511709     0.37000
C1311       C  0.85077759  0.91564462  0.11466374     0.36700
C1312       C  0.92053528  0.05613135  0.07726200     0.37500
N1313       N  0.90522020  0.97189279  0.17162518    -0.43300
N1314       N  0.79112004  0.01246816  0.10560291    -0.43800
N1315       N  0.93217425  0.08410878  0.06946687    -0.41100
N1316       N  0.83439905  0.88630075  0.12188592    -0.42500
H1317       H  0.87752694  0.91744079  0.08848097     0.13600
H1318       H  0.89897240  0.05565431  0.10423740     0.10100
H1319       H  0.91331150  0.98985975  0.13523026     0.11200
H1320       H  0.78180347  0.99262096  0.14182513     0.17000
C1321       C  0.55686474  0.79769207  0.19457272    -0.01200
C1322       C  0.56676062  0.83249085  0.18570056     0.07400
C1323       C  0.53440254  0.83301295  0.17788391    -0.07200
C1324       C  0.49291560  0.79961720  0.17877257     0.04800
C1325       C  0.48306078  0.76585800  0.18804768    -0.14400
C1326       C  0.51508597  0.76536000  0.19597462    -0.07700
C1327       C  0.61108948  0.86551446  0.18301402     0.05800
C1328       C  0.62627361  0.86948050  0.16908906    -0.08900
C1329       C  0.66919514  0.89365236  0.16639935     0.00700
C1330       C  0.69776111  0.91526760  0.17772919     0.00600
C1331       C  0.68240310  0.91418807  0.19144851    -0.12400
C1332       C  0.63926439  0.88967146  0.19415648     0.01100
C1333       C  0.68353199  0.89319028  0.15211045     0.40400
C1334       C  0.62480424  0.88797379  0.20855365     0.37000
C1335       C  0.58929330  0.79257668  0.20130225     0.36700
C1336       C  0.46121231  0.79956095  0.16961543     0.37500
N1337       N  0.69497553  0.89267139  0.14068061    -0.43300
N1338       N  0.61299635  0.88603071  0.22009702    -0.43800
N1339       N  0.43573219  0.79911226  0.16221773    -0.41100
N1340       N  0.61547803  0.78857674  0.20656982    -0.42500
H1341       H  0.50772071  0.73847436  0.20263648     0.13600
H1342       H  0.54186141  0.85881116  0.17066985     0.10100
H1343       H  0.60486897  0.85125177  0.16045687     0.11200
H1344       H  0.70428209  0.93038775  0.20019038     0.17000
C1345       C  0.72989771  0.21118426  0.24516868    -0.01200
C1346       C  0.74738234  0.21244687  0.25876825     0.07400
C1347       C  0.78717165  0.21670897  0.25965765    -0.07200
C1348       C  0.81163280  0.22495287  0.24742340     0.04800
C1349       C  0.79584081  0.22804792  0.23394366    -0.14400
C1350       C  0.75412284  0.21870632  0.23286430    -0.07700
C1351       C  0.72953148  0.21898455  0.27204673     0.05800
C1352       C  0.70691824  0.18565144  0.28149068    -0.08900
C1353       C  0.69265096  0.19233046  0.29457759     0.00700
C1354       C  0.70071530  0.23307409  0.29832975     0.00600
C1355       C  0.72380883  0.26633344  0.28882726    -0.12400
C1356       C  0.73837613  0.25968271  0.27589226     0.01100
C1357       C  0.67210956  0.15738051  0.30427435     0.40400
C1358       C  0.76377734  0.29544831  0.26691603     0.37000
C1359       C  0.68871552  0.20611573  0.24371148     0.36700
C1360       C  0.85477452  0.23577754  0.24929529     0.37500
N1361       N  0.65594441  0.12944106  0.31209112    -0.43300
N1362       N  0.78443812  0.32400096  0.25973589    -0.43800
N1363       N  0.88935025  0.24467680  0.25098924    -0.41100
N1364       N  0.65569824  0.20204447  0.24247092    -0.42500
H1365       H  0.74204198  0.22184644  0.22261716     0.13600
H1366       H  0.80080836  0.21789772  0.27009203     0.10100
H1367       H  0.70120094  0.15458545  0.27876700     0.11200
H1368       H  0.73064476  0.29782162  0.29150328     0.17000
C1369       C  0.95762837  0.34165716  0.18071311    -0.01200
C1370       C  0.99059611  0.33935913  0.18749876     0.07400
C1371       C  0.98082429  0.30778592  0.19763537    -0.07200
C1372       C  0.93950511  0.28264404  0.20244391     0.04800
C1373       C  0.90757104  0.28948476  0.19716244    -0.14400
C1374       C  0.91652584  0.31691661  0.18560933    -0.07700
C1375       C  0.03441876  0.37538598  0.18677012     0.05800
C1376       C  0.04274608  0.41358350  0.19287048    -0.08900
C1377       C  0.08302638  0.44899435  0.19283169     0.00700
C1378       C  0.11659926  0.44683884  0.18649607     0.00600
C1379       C  0.10809737  0.40833167  0.18032966    -0.12400
C1380       C  0.06751340  0.37261675  0.18060608     0.01100
C1381       C  0.08819306  0.48712696  0.19915362     0.40400
C1382       C  0.06045116  0.33350879  0.17458576     0.37000
C1383       C  0.96600136  0.37216369  0.16966852     0.36700
C1384       C  0.93192191  0.25410729  0.21407831     0.37500
N1385       N  0.09189148  0.51736233  0.20432014    -0.43300
N1386       N  0.05464883  0.30197911  0.16985412    -0.43800
N1387       N  0.92614787  0.23115913  0.22336119    -0.41100
N1388       N  0.97288913  0.39665441  0.16081811    -0.42500
H1389       H  0.89228543  0.32248040  0.18148040     0.13600
H1390       H  0.00600336  0.30561538  0.20281615     0.10100
H1391       H  0.01736787  0.41566167  0.19776757     0.11200
H1392       H  0.13332751  0.40583252  0.17554141     0.17000
C1393       C  0.81042075  0.13125038  0.20879884    -0.01200
C1394       C  0.80238189  0.12379258  0.19394214     0.07400
C1395       C  0.80381677  0.15569954  0.18541821    -0.07200
C1396       C  0.81538956  0.19517744  0.19128179     0.04800
C1397       C  0.82695484  0.20381742  0.20589149    -0.14400
C1398       C  0.82313243  0.17114062  0.21458718    -0.07700
C1399       C  0.79485150  0.08400833  0.18698939     0.05800
C1400       C  0.75795753  0.05900846  0.17894303    -0.08900
C1401       C  0.75034152  0.02135749  0.17238227     0.00700
C1402       C  0.77934679  0.00751717  0.17420550     0.00600
C1403       C  0.81707801  0.03372143  0.18165488    -0.12400
C1404       C  0.82535015  0.07188322  0.18772445     0.01100
C1405       C  0.71400065  0.99909166  0.16319402     0.40400
C1406       C  0.86602122  0.09886359  0.19424055     0.37000
C1407       C  0.80535183  0.09828716  0.21833175     0.36700
C1408       C  0.81335385  0.22565781  0.18219954     0.37500
N1409       N  0.68500273  0.98213487  0.15567951    -0.43300
N1410       N  0.89858503  0.12083978  0.19941565    -0.43800
N1411       N  0.81109171  0.24962951  0.17484024    -0.41100
N1412       N  0.80117004  0.07181302  0.22596857    -0.42500
H1413       H  0.83073963  0.17695342  0.22586803     0.13600
H1414       H  0.79649713  0.14996483  0.17409085     0.10100
H1415       H  0.73518126  0.06905289  0.17772784     0.11200
H1416       H  0.84012739  0.02404318  0.18286264     0.17000
C1417       C  0.96831680  0.31949235  0.34015743    -0.01200
C1418       C  0.95083677  0.33724776  0.34922960     0.07400
C1419       C  0.97822870  0.37365970  0.35710391    -0.07200
C1420       C  0.02167952  0.39442682  0.35508371     0.04800
C1421       C  0.03871251  0.37894826  0.34496191    -0.14400
C1422       C  0.01189572  0.34043154  0.33810416    -0.07700
C1423       C  0.90459943  0.32060072  0.35022839     0.05800
C1424       C  0.88602600  0.31268822  0.36379485    -0.08900
C1425       C  0.84431485  0.30299598  0.36549661     0.00700
C1426       C  0.81988526  0.30056721  0.35338890     0.00600
C1427       C  0.83816702  0.30722051  0.33981161    -0.12400
C1428       C  0.87994106  0.31763829  0.33813918     0.01100
C1429       C  0.82867030  0.29857489  0.37985590     0.40400
C1430       C  0.89710453  0.32768609  0.32392874     0.37000
C1431       C  0.94235259  0.28078429  0.33238552     0.36700
C1432       C  0.04801224  0.43263360  0.36309090     0.37500
N1433       N  0.81650966  0.29526768  0.39141339    -0.43300
N1434       N  0.91035312  0.33534574  0.31246727    -0.43800
N1435       N  0.06908787  0.46324393  0.36951050    -0.41100
N1436       N  0.92182951  0.25009345  0.32593826    -0.42500
H1437       H  0.02458495  0.32822788  0.33029953     0.13600
H1438       H  0.96547401  0.38722491  0.36434048     0.10100
H1439       H  0.90475152  0.31554500  0.37318542     0.11200
H1440       H  0.82001863  0.30545209  0.33038251     0.17000
C1441       C  0.15142151  0.40002320  0.28795296    -0.01200
C1442       C  0.19063584  0.43598363  0.28482877     0.07400
C1443       C  0.21498066  0.46204957  0.29625598    -0.07200
C1444       C  0.19934148  0.45515298  0.31022070     0.04800
C1445       C  0.15840514  0.42175783  0.31305656    -0.14400
C1446       C  0.13555565  0.39351508  0.30190295    -0.07700
C1447       C  0.20385040  0.45073241  0.26977782     0.05800
C1448       C  0.17602161  0.45537118  0.26069082    -0.08900
C1449       C  0.18819813  0.47353498  0.24712978     0.00700
C1450       C  0.23021627  0.49028822  0.24258587     0.00600
C1451       C  0.25753446  0.48387781  0.25142664    -0.12400
C1452       C  0.24456551  0.46384710  0.26475102     0.01100
C1453       C  0.15630169  0.47357318  0.23810318     0.40400
C1454       C  0.27340088  0.45650681  0.27298216     0.37000
C1455       C  0.12572680  0.37063330  0.27687529     0.36700
C1456       C  0.22406192  0.48551788  0.32120106     0.37500
N1457       N  0.13054324  0.47338875  0.23092965    -0.43300
N1458       N  0.29636206  0.45029739  0.27954467    -0.43800
N1459       N  0.24374237  0.51001350  0.32997462    -0.41100
N1460       N  0.10504611  0.34714517  0.26799431    -0.42500
H1461       H  0.10344855  0.36880548  0.30369186     0.13600
H1462       H  0.24497548  0.48993197  0.29411031     0.10100
H1463       H  0.14459594  0.44545999  0.26430826     0.11200
H1464       H  0.28949089  0.49523245  0.24808541     0.17000
C1465       C  0.07028618  0.06416386  0.44247560    -0.01200
C1466       C  0.06062486  0.09533749  0.43872614     0.07400
C1467       C  0.03814171  0.10531708  0.44839334    -0.07200
C1468       C  0.02451457  0.08403058  0.46150970     0.04800
C1469       C  0.03344568  0.05200243  0.46515873    -0.14400
C1470       C  0.05699959  0.04311962  0.45554457    -0.07700
C1471       C  0.07518698  0.11789184  0.42483042     0.05800
C1472       C  0.05585147  0.09607128  0.41211620    -0.08900
C1473       C  0.07601727  0.11013723  0.39894452     0.00700
C1474       C  0.11638763  0.14639116  0.39837240     0.00600
C1475       C  0.13303985  0.17116845  0.41077713    -0.12400
C1476       C  0.11277168  0.15710378  0.42398210     0.01100
C1477       C  0.05630495  0.08516780  0.38626732     0.40400
C1478       C  0.13315532  0.18112442  0.43674697     0.37000
C1479       C  0.09396033  0.05328266  0.43298403     0.36700
C1480       C  0.00271558  0.09673600  0.47118317     0.37500
N1481       N  0.04065445  0.06537624  0.37605560    -0.43300
N1482       N  0.14928684  0.20018761  0.44703972    -0.43800
N1483       N  0.98535402  0.10699309  0.47895864    -0.41100
N1484       N  0.11283954  0.04477638  0.42526633    -0.42500
H1485       H  0.06436148  0.01889619  0.45807949     0.13600
H1486       H  0.03126226  0.12977000  0.44568892     0.10100
H1487       H  0.02659539  0.06625180  0.41263323     0.11200
H1488       H  0.16399754  0.19908861  0.41047787     0.17000
C1489       C  0.31712464  0.24036176  0.37702883    -0.01200
C1490       C  0.32994476  0.23787674  0.36305317     0.07400
C1491       C  0.29994687  0.22378410  0.35190745    -0.07200
C1492       C  0.25732615  0.20887032  0.35475641     0.04800
C1493       C  0.24410793  0.20806784  0.36892170    -0.14400
C1494       C  0.27463593  0.22510776  0.37984225    -0.07700
C1495       C  0.37223456  0.24299933  0.36047819     0.05800
C1496       C  0.38157391  0.21454693  0.36704730    -0.08900
C1497       C  0.42054614  0.21743378  0.36532882     0.00700
C1498       C  0.45235879  0.25039730  0.35710319     0.00600
C1499       C  0.44226412  0.27795397  0.35004605    -0.12400
C1500       C  0.40263967  0.27429405  0.35157821     0.01100
C1501       C  0.42590904  0.18486790  0.37177457     0.40400
C1502       C  0.39426819  0.30353242  0.34415346     0.37000
C1503       C  0.34668052  0.25632062  0.38884355     0.36700
C1504       C  0.22711708  0.19157778  0.34317150     0.37500
N1505       N  0.42992972  0.15855928  0.37688493    -0.43300
N1506       N  0.38764900  0.32693849  0.33811118    -0.43800
N1507       N  0.20280313  0.17778476  0.33390165    -0.41100
N1508       N  0.37019057  0.26917460  0.39836119    -0.42500
H1509       H  0.26478291  0.22331551  0.39083345     0.13600
H1510       H  0.30927967  0.22164518  0.34113096     0.10100
H1511       H  0.35786626  0.18944224  0.37349668     0.11200
H1512       H  0.46560709  0.30300376  0.34350718     0.17000
C1513       C  0.12037980  0.29993841  0.33935257    -0.01200
C1514       C  0.12947437  0.30235542  0.35419789     0.07400
C1515       C  0.13144006  0.33570673  0.36209647    -0.07200
C1516       C  0.12449201  0.36592797  0.35556462     0.04800
C1517       C  0.11449657  0.36300205  0.34078409    -0.14400
C1518       C  0.11255150  0.32973560  0.33286877    -0.07700
C1519       C  0.13924315  0.27204956  0.36156370     0.05800
C1520       C  0.17740147  0.28767627  0.36918584    -0.08900
C1521       C  0.18859884  0.26046235  0.37581717     0.00700
C1522       C  0.16186570  0.21653376  0.37465137     0.00600
C1523       C  0.12299996  0.20100260  0.36754472    -0.12400
C1524       C  0.11119345  0.22808475  0.36132095     0.01100
C1525       C  0.22665274  0.27854625  0.38425309     0.40400
C1526       C  0.06962721  0.20983812  0.35511927     0.37000
C1527       C  0.12047619  0.26815369  0.33038268     0.36700
C1528       C  0.12979486  0.40077656  0.36419585     0.37500
N1529       N  0.25707428  0.29393611  0.39112919    -0.43300
N1530       N  0.03629771  0.19497515  0.35014438    -0.43800
N1531       N  0.13443062  0.42868989  0.37122226    -0.41100
N1532       N  0.12031626  0.24248006  0.32322188    -0.42500
H1533       H  0.10500440  0.32692712  0.32158869     0.13600
H1534       H  0.13898986  0.33847279  0.37342665     0.10100
H1535       H  0.19870794  0.32137787  0.36990579     0.11200
H1536       H  0.10176309  0.16730516  0.36678756     0.17000
C1537       C  0.64634822  0.93736297  0.04002764    -0.01200
C1538       C  0.65735928  0.91807074  0.02916358     0.07400
C1539       C  0.62512463  0.88724566  0.02048343    -0.07200
C1540       C  0.58281674  0.87234387  0.02353771     0.04800
C1541       C  0.57194714  0.88715094  0.03572389    -0.14400
C1542       C  0.60389784  0.92159409  0.04329332    -0.07700
C1543       C  0.70091103  0.92497504  0.02802859     0.05800
C1544       C  0.71951631  0.91851323  0.04018666    -0.08900
C1545       C  0.75878450  0.92135516  0.03958309     0.00700
C1546       C  0.78041787  0.93001739  0.02643375     0.00600
C1547       C  0.76198597  0.93709176  0.01430385    -0.12400
C1548       C  0.72280265  0.93462041  0.01499525     0.01100
C1549       C  0.77637207  0.91649343  0.05280520     0.40400
C1550       C  0.70594595  0.94265835  0.00220862     0.37000
C1551       C  0.67809258  0.97182832  0.04847399     0.36700
C1552       C  0.55075473  0.83837862  0.01499893     0.37500
N1553       N  0.79035127  0.91274538  0.06344364    -0.43300
N1554       N  0.69225733  0.94897021  0.99197044    -0.43800
N1555       N  0.52478964  0.81119268  0.00822331    -0.41100
N1556       N  0.70356839  0.99953414  0.05521155    -0.42500
H1557       H  0.59605417  0.93320697  0.05272041     0.13600
H1558       H  0.63277769  0.87234445  0.01198923     0.10100
H1559       H  0.70295177  0.91062824  0.05024925     0.11200
H1560       H  0.77802842  0.94421853  0.00415364     0.17000
C1561       C  0.43540164  0.83262980  0.09119531    -0.01200
C1562       C  0.40423766  0.78976207  0.09254283     0.07400
C1563       C  0.38781316  0.76541800  0.08008346    -0.07200
C1564       C  0.40704482  0.78048056  0.06689138     0.04800
C1565       C  0.44319248  0.82089941  0.06598067    -0.14400
C1566       C  0.45465186  0.84791959  0.07789723    -0.07700
C1567       C  0.39304421  0.76769213  0.10660467     0.05800
C1568       C  0.37334553  0.77849284  0.11714166    -0.08900
C1569       C  0.36070819  0.75633246  0.13008334     0.00700
C1570       C  0.36766779  0.72249585  0.13266018     0.00600
C1571       C  0.38864317  0.71274368  0.12229625    -0.12400
C1572       C  0.40119671  0.73476701  0.10940564     0.01100
C1573       C  0.34151611  0.76958852  0.14065025     0.40400
C1574       C  0.42240470  0.72277869  0.09919021     0.37000
C1575       C  0.45061307  0.86044500  0.10344617     0.36700
C1576       C  0.39236056  0.75166175  0.05490457     0.37500
N1577       N  0.32617765  0.78011647  0.14916783    -0.43300
N1578       N  0.43914504  0.71298750  0.09097924    -0.43800
N1579       N  0.37999768  0.72784725  0.04549244    -0.41100
N1580       N  0.46249517  0.88301309  0.11320885    -0.42500
H1581       H  0.48204967  0.87921554  0.07731277     0.13600
H1582       H  0.36253884  0.73299607  0.08091685     0.10100
H1583       H  0.36725470  0.80386497  0.11516867     0.11200
H1584       H  0.39437084  0.68703937  0.12410126     0.17000
C1585       C  0.53173900  0.12060860  0.96226032    -0.01200
C1586       C  0.51593158  0.10647871  0.94830424     0.07400
C1587       C  0.47526574  0.07216919  0.94650085    -0.07200
C1588       C  0.44854839  0.05530447  0.95816511     0.04800
C1589       C  0.46323270  0.07100037  0.97213942    -0.14400
C1590       C  0.50549563  0.10234411  0.97408707    -0.07700
C1591       C  0.53663679  0.13213449  0.93548004     0.05800
C1592       C  0.55918988  0.12091965  0.92632958    -0.08900
C1593       C  0.57478657  0.14195785  0.91331400     0.00700
C1594       C  0.56757433  0.17485260  0.90925851     0.00600
C1595       C  0.54487703  0.18575235  0.91853391    -0.12400
C1596       C  0.52952851  0.16485024  0.93148573     0.01100
C1597       C  0.59608550  0.12754615  0.90409190     0.40400
C1598       C  0.50548529  0.17678935  0.94037150     0.37000
C1599       C  0.57327261  0.15639471  0.96454495     0.36700
C1600       C  0.40457219  0.02617078  0.95526265     0.37500
N1601       N  0.61297947  0.11564034  0.89676594    -0.43300
N1602       N  0.48617485  0.18631552  0.94747614    -0.43800
N1603       N  0.36937862  0.00289915  0.95293041    -0.41100
N1604       N  0.60652020  0.18518805  0.96636816    -0.42500
H1605       H  0.51657873  0.11589795  0.98464564     0.13600
H1606       H  0.46283419  0.06173852  0.93577023     0.10100
H1607       H  0.56376326  0.09505672  0.92921538     0.11200
H1608       H  0.53917319  0.21093172  0.91570423     0.17000
C1609       C  0.19725791  0.96018678  0.03204894    -0.01200
C1610       C  0.22076026  0.97448965  0.01944185     0.07400
C1611       C  0.20326063  0.98257582  0.00740519    -0.07200
C1612       C  0.16362176  0.97836198  0.00783217     0.04800
C1613       C  0.14009724  0.96522392  0.02058987    -0.14400
C1614       C  0.15689921  0.95479336  0.03242420    -0.07700
C1615       C  0.26508101  0.98535552  0.01844065     0.05800
C1616       C  0.27477779  0.96236037  0.00882723    -0.08900
C1617       C  0.31492512  0.98013184  0.00296430     0.00700
C1618       C  0.34625417  0.02111422  0.00707390     0.00600
C1619       C  0.33779136  0.04189161  0.01797496    -0.12400
C1620       C  0.29742786  0.02459544  0.02356013     0.01100
C1621       C  0.32104941  0.95852876  0.99120181     0.40400
C1622       C  0.28856207  0.05017249  0.03295107     0.37000
C1623       C  0.21418703  0.95193112  0.04477752     0.36700
C1624       C  0.14833397  0.98766865  0.99489795     0.37500
N1625       N  0.32556540  0.94126768  0.98166537    -0.43300
N1626       N  0.28115459  0.07062853  0.04037394    -0.43800
N1627       N  0.13647698  0.99537549  0.98449584    -0.41100
N1628       N  0.22756397  0.94551905  0.05507659    -0.42500
H1629       H  0.13901038  0.94347092  0.04215246     0.13600
H1630       H  0.22142342  0.99361958  0.99768585     0.10100
H1631       H  0.24973033  0.93254125  0.00467589     0.11200
H1632       H  0.36156946  0.07370948  0.02098227     0.17000
C1633       C  0.49801627  0.95840517  0.03704270    -0.01200
C1634       C  0.46448291  0.94170402  0.02694389     0.07400
C1635       C  0.44325446  0.89826758  0.02410623    -0.07200
C1636       C  0.45493212  0.87187777  0.03091341     0.04800
C1637       C  0.48778536  0.88833251  0.04115706    -0.14400
C1638       C  0.50902174  0.93163006  0.04413886    -0.07700
C1639       C  0.45248715  0.96860808  0.01843753     0.05800
C1640       C  0.45120450  0.96554919  0.00344090    -0.08900
C1641       C  0.43756754  0.98769144  0.99487158     0.00700
C1642       C  0.42672358  0.01568133  0.00123714     0.00600
C1643       C  0.42838090  0.01885234  0.01629356    -0.12400
C1644       C  0.43965532  0.99482128  0.02485033     0.01100
C1645       C  0.43194977  0.97748917  0.97986790     0.40400
C1646       C  0.43501459  0.99558022  0.04013383     0.37000
C1647       C  0.52306907  0.00304823  0.03975977     0.36700
C1648       C  0.43459877  0.82844730  0.02644860     0.37500
N1649       N  0.42775752  0.96686546  0.96802597    -0.43300
N1650       N  0.43091801  0.99603258  0.05237109    -0.43800
N1651       N  0.41845343  0.79387557  0.02255244    -0.41100
N1652       N  0.54317638  0.03883905  0.04196927    -0.42500
H1653       H  0.53475785  0.94459528  0.05180770     0.13600
H1654       H  0.41797567  0.88499265  0.01623924     0.10100
H1655       H  0.45975544  0.94453467  0.99837303     0.11200
H1656       H  0.41982208  0.03966755  0.02147022     0.17000
C1657       C  0.43454342  0.56389318  0.58639870    -0.01200
C1658       C  0.42235937  0.54086435  0.59922491     0.07400
C1659       C  0.43672631  0.51308002  0.60215826    -0.07200
C1660       C  0.46641740  0.51142963  0.59338242     0.04800
C1661       C  0.48180673  0.53741645  0.58120817    -0.14400
C1662       C  0.46365513  0.56162483  0.57742099    -0.07700
C1663       C  0.40228114  0.55157618  0.61096186     0.05800
C1664       C  0.35845718  0.53074171  0.61216161    -0.08900
C1665       C  0.33951872  0.54019921  0.62345879     0.00700
C1666       C  0.36475217  0.57101345  0.63388151     0.00600
C1667       C  0.40866004  0.59191364  0.63242821    -0.12400
C1668       C  0.42734877  0.58244396  0.62121667     0.01100
C1669       C  0.29429997  0.51874148  0.62375111     0.40400
C1670       C  0.47260529  0.60459840  0.62052689     0.37000
C1671       C  0.42069642  0.59309064  0.58300961     0.36700
C1672       C  0.48319927  0.48560507  0.59798435     0.37500
N1673       N  0.25802218  0.50143464  0.62386941    -0.43300
N1674       N  0.50884592  0.62223631  0.61996851    -0.43800
N1675       N  0.49553575  0.46430301  0.60212507    -0.41100
N1676       N  0.40953357  0.61650890  0.58038055    -0.42500
H1677       H  0.47583871  0.58256107  0.56833956     0.13600
H1678       H  0.42746755  0.49530481  0.61201541     0.10100
H1679       H  0.33904299  0.50711863  0.60425051     0.11200
H1680       H  0.42880867  0.61545545  0.64025207     0.17000
C1681       C  0.62942614  0.65258358  0.53140412    -0.01200
C1682       C  0.67008400  0.65795346  0.53207526     0.07400
C1683       C  0.67626882  0.62937862  0.54011861    -0.07200
C1684       C  0.64426426  0.59932283  0.54872542     0.04800
C1685       C  0.60520267  0.59730614  0.54929420    -0.14400
C1686       C  0.59745642  0.62245535  0.54000069    -0.07700
C1687       C  0.70772270  0.69781561  0.52733579     0.05800
C1688       C  0.71416272  0.73564886  0.53318570    -0.08900
C1689       C  0.75112452  0.77378341  0.53084053     0.00700
C1690       C  0.78390219  0.77484669  0.52274875     0.00600
C1691       C  0.77665573  0.73707075  0.51632646    -0.12400
C1692       C  0.73906266  0.69882137  0.51857087     0.01100
C1693       C  0.75415023  0.81092140  0.53718039     0.40400
C1694       C  0.73345383  0.66097835  0.51190957     0.37000
C1695       C  0.62082607  0.68016711  0.52297008     0.36700
C1696       C  0.65341407  0.57356472  0.55793556     0.37500
N1697       N  0.75610366  0.84021930  0.54246819    -0.43300
N1698       N  0.72881929  0.63055731  0.50658560    -0.43800
N1699       N  0.66076996  0.55296623  0.56533612    -0.41100
N1700       N  0.61406391  0.70252149  0.51630977    -0.42500
H1701       H  0.56788112  0.62181431  0.54057840     0.13600
H1702       H  0.70726932  0.63312107  0.54077063     0.10100
H1703       H  0.69054865  0.73524380  0.54008659     0.11200
H1704       H  0.80093612  0.73700534  0.50994531     0.17000
C1705       C  0.30802874  0.21226384  0.52909831    -0.01200
C1706       C  0.27817446  0.20276610  0.51810148     0.07400
C1707       C  0.29165958  0.22280837  0.50486836    -0.07200
C1708       C  0.33456325  0.24856218  0.50202932     0.04800
C1709       C  0.36484611  0.25428188  0.51252099    -0.14400
C1710       C  0.35101842  0.23768641  0.52623126    -0.07700
C1711       C  0.23428694  0.16701258  0.51938233     0.05800
C1712       C  0.20431347  0.17212889  0.52672681    -0.08900
C1713       C  0.16279438  0.13852579  0.52804089     0.00700
C1714       C  0.15036619  0.09894506  0.52158776     0.00600
C1715       C  0.18112450  0.09401578  0.51455416    -0.12400
C1716       C  0.22260758  0.12724131  0.51356635     0.01100
C1717       C  0.13409951  0.14599665  0.53608358     0.40400
C1718       C  0.25307494  0.11946001  0.50686759     0.37000
C1719       C  0.29527037  0.19301806  0.54296544     0.36700
C1720       C  0.34676949  0.26481097  0.48774817     0.37500
N1721       N  0.11165962  0.15231792  0.54275067    -0.43300
N1722       N  0.27758191  0.11316106  0.50162023    -0.43800
N1723       N  0.35660294  0.27819061  0.47634914    -0.41100
N1724       N  0.28461892  0.17746695  0.55404929    -0.42500
H1725       H  0.37386197  0.24114682  0.53428531     0.13600
H1726       H  0.26876355  0.21579571  0.49639642     0.10100
H1727       H  0.21346233  0.20244604  0.53149137     0.11200
H1728       H  0.17297186  0.06381191  0.50991405     0.17000
C1729       C  0.49745297  0.33481123  0.45835887    -0.01200
C1730       C  0.52755104  0.32351339  0.45478799     0.07400
C1731       C  0.54104460  0.30622931  0.46545486    -0.07200
C1732       C  0.52233510  0.29631122  0.47894204     0.04800
C1733       C  0.48945690  0.30410201  0.48211799    -0.14400
C1734       C  0.47884766  0.32519934  0.47193608    -0.07700
C1735       C  0.54270726  0.32529692  0.43984344     0.05800
C1736       C  0.58600146  0.34787699  0.43713362    -0.08900
C1737       C  0.60196954  0.34485867  0.42385892     0.00700
C1738       C  0.57432312  0.31853702  0.41287555     0.00600
C1739       C  0.53094483  0.29718310  0.41548923    -0.12400
C1740       C  0.51510462  0.30005836  0.42875150     0.01100
C1741       C  0.64695572  0.36695547  0.42226240     0.40400
C1742       C  0.47050438  0.27431348  0.43098526     0.37000
C1743       C  0.48392213  0.35479851  0.44811845     0.36700
C1744       C  0.53614607  0.27609550  0.48903190     0.37500
N1745       N  0.68305643  0.38477086  0.42110669    -0.43300
N1746       N  0.43473835  0.25365654  0.43274140    -0.43800
N1747       N  0.54722260  0.25972113  0.49703124    -0.41100
N1748       N  0.47271261  0.37064343  0.43995238    -0.42500
H1749       H  0.45373834  0.33135563  0.47416334     0.13600
H1750       H  0.56460447  0.29804042  0.46294856     0.10100
H1751       H  0.60756669  0.36679598  0.44563212     0.11200
H1752       H  0.50916017  0.27697645  0.40724516     0.17000
C1753       C  0.43766663  0.39321163  0.51451544    -0.01200
C1754       C  0.47759094  0.41621231  0.52114996     0.07400
C1755       C  0.50571607  0.40160900  0.51956265    -0.07200
C1756       C  0.49388230  0.36343878  0.51262092     0.04800
C1757       C  0.45315770  0.33902360  0.50650387    -0.14400
C1758       C  0.42595065  0.35523483  0.50722724    -0.07700
C1759       C  0.48874927  0.45098130  0.53176545     0.05800
C1760       C  0.49879350  0.44512164  0.54575238    -0.08900
C1761       C  0.51421904  0.47750811  0.55593413     0.00700
C1762       C  0.51712394  0.51621752  0.55268284     0.00600
C1763       C  0.50625604  0.52209178  0.53878303    -0.12400
C1764       C  0.49310091  0.49028828  0.52824676     0.01100
C1765       C  0.53203319  0.47191106  0.56891502     0.40400
C1766       C  0.48747313  0.49992575  0.51374795     0.37000
C1767       C  0.40723018  0.40642232  0.51584748     0.36700
C1768       C  0.52303431  0.34845722  0.51342078     0.37500
N1769       N  0.54740986  0.46690055  0.57896119    -0.43300
N1770       N  0.48336420  0.50800773  0.50211773    -0.43800
N1771       N  0.54696427  0.33716409  0.51435203    -0.41100
N1772       N  0.38299637  0.41726364  0.51688603    -0.42500
H1773       H  0.39477670  0.33743038  0.50263977     0.13600
H1774       H  0.53640500  0.41886818  0.52467679     0.10100
H1775       H  0.49684179  0.41563010  0.54851181     0.11200
H1776       H  0.50986550  0.55220212  0.53598680     0.17000
C1777       C  0.74401360  0.39747343  0.77368407    -0.01200
C1778       C  0.74008071  0.43217497  0.76965925     0.07400
C1779       C  0.72335346  0.44840037  0.77951053    -0.07200
C1780       C  0.70923155  0.42952013  0.79298380     0.04800
C1781       C  0.71144631  0.39351027  0.79673254    -0.14400
C1782       C  0.72978229  0.37858370  0.78702520    -0.07700
C1783       C  0.75313267  0.45085571  0.75511000     0.05800
C1784       C  0.73031737  0.42658906  0.74316118    -0.08900
C1785       C  0.74706589  0.43711717  0.72937282     0.00700
C1786       C  0.78700288  0.47297688  0.72730344     0.00600
C1787       C  0.80763317  0.49969522  0.73901556    -0.12400
C1788       C  0.79132514  0.48872376  0.75286965     0.01100
C1789       C  0.72467402  0.40852433  0.71768887     0.40400
C1790       C  0.81686130  0.51418996  0.76472216     0.37000
C1791       C  0.76297912  0.38085481  0.76429042     0.36700
C1792       C  0.69426211  0.44864192  0.80297731     0.37500
N1793       N  0.70691821  0.38557933  0.70831591    -0.43300
N1794       N  0.83785160  0.53471795  0.77412820    -0.43800
N1795       N  0.68260406  0.46407771  0.81108077    -0.41100
N1796       N  0.77827558  0.36769759  0.75674961    -0.42500
H1797       H  0.73232154  0.35138849  0.78974558     0.13600
H1798       H  0.72113667  0.47566915  0.77664360     0.10100
H1799       H  0.70091333  0.39748131  0.74476335     0.11200
H1800       H  0.83894734  0.52648703  0.73765716     0.17000
C1801       C  0.97420020  0.59321845  0.69776580    -0.01200
C1802       C  0.99215909  0.57757878  0.68800050     0.07400
C1803       C  0.96519785  0.54175337  0.67980868    -0.07200
C1804       C  0.92202617  0.51902557  0.68235891     0.04800
C1805       C  0.90509289  0.53142470  0.69351416    -0.14400
C1806       C  0.93094293  0.57008540  0.70043064    -0.07700
C1807       C  0.03815553  0.59266567  0.68809649     0.05800
C1808       C  0.05733616  0.59331984  0.70120581    -0.08900
C1809       C  0.09843248  0.60093858  0.70192289     0.00700
C1810       C  0.12161393  0.60777817  0.68923920     0.00600
C1811       C  0.10299250  0.60864464  0.67614515    -0.12400
C1812       C  0.06171912  0.60093097  0.67545752     0.01100
C1813       C  0.11545265  0.60110475  0.71589970     0.40400
C1814       C  0.04409171  0.60065023  0.66159325     0.37000
C1815       C  0.99982568  0.63119270  0.70597041     0.36700
C1816       C  0.89620562  0.48128837  0.67407481     0.37500
N1817       N  0.12850495  0.60087385  0.72716981    -0.43300
N1818       N  0.03004468  0.59999318  0.65042211    -0.43800
N1819       N  0.87567561  0.45108491  0.66739582    -0.41100
N1820       N  0.02023442  0.66140602  0.71266314    -0.42500
H1821       H  0.91824924  0.58018354  0.70893412     0.13600
H1822       H  0.97815602  0.52925964  0.67223085     0.10100
H1823       H  0.03945916  0.58606059  0.71097535     0.11200
H1824       H  0.12015625  0.61383877  0.66629787     0.17000
C1825       C  0.55196721  0.67541425  0.67940184    -0.01200
C1826       C  0.56076476  0.64647121  0.68606084     0.07400
C1827       C  0.52899860  0.61280758  0.69364288    -0.07200
C1828       C  0.48858098  0.60744437  0.69453747     0.04800
C1829       C  0.47933040  0.63617006  0.68765711    -0.14400
C1830       C  0.51169440  0.66992831  0.68011428    -0.07700
C1831       C  0.60252603  0.65035869  0.68421547     0.05800
C1832       C  0.63515737  0.67487707  0.69394939    -0.08900
C1833       C  0.67721363  0.69059743  0.69017500     0.00700
C1834       C  0.68690256  0.68227270  0.67645925     0.00600
C1835       C  0.65406360  0.65368753  0.66747997    -0.12400
C1836       C  0.61210270  0.63752682  0.67129319     0.01100
C1837       C  0.71026992  0.71864859  0.69988998     0.40400
C1838       C  0.57940917  0.61150524  0.66112961     0.37000
C1839       C  0.58417501  0.71123027  0.67181059     0.36700
C1840       C  0.45710874  0.57138235  0.70218813     0.37500
N1841       N  0.73712661  0.74104060  0.70758528    -0.43300
N1842       N  0.55304443  0.59067867  0.65303066    -0.43800
N1843       N  0.43188182  0.54249029  0.70833455    -0.41100
N1844       N  0.61034983  0.73987531  0.66583842    -0.42500
H1845       H  0.50580216  0.69261190  0.67484389     0.13600
H1846       H  0.53561618  0.59031260  0.69867489     0.10100
H1847       H  0.62801577  0.68464376  0.70395231     0.11200
H1848       H  0.66109346  0.64776616  0.65679271     0.17000
C1849       C  0.82549489  0.72798755  0.62226698    -0.01200
C1850       C  0.85611549  0.77003312  0.61908052     0.07400
C1851       C  0.86842015  0.80061925  0.62986861    -0.07200
C1852       C  0.84786605  0.79105208  0.64300437     0.04800
C1853       C  0.81373348  0.75012865  0.64557562    -0.14400
C1854       C  0.80458625  0.71832211  0.63545987    -0.07700
C1855       C  0.87128675  0.78457582  0.60422002     0.05800
C1856       C  0.84204263  0.78019908  0.59367891    -0.08900
C1857       C  0.85498765  0.80045329  0.58042628     0.00700
C1858       C  0.89826735  0.82629789  0.57743906     0.00600
C1859       C  0.92746923  0.82839688  0.58769099    -0.12400
C1860       C  0.91438417  0.80800560  0.60094937     0.01100
C1861       C  0.82288997  0.79342865  0.57008689     0.40400
C1862       C  0.94571300  0.81193017  0.61115205     0.37000
C1863       C  0.81410952  0.69463218  0.61198105     0.36700
C1864       C  0.86031920  0.82478151  0.65325327     0.37500
N1865       N  0.79667422  0.78714062  0.56190737    -0.43300
N1866       N  0.97064160  0.81488546  0.61938132    -0.43800
N1867       N  0.87027234  0.85188515  0.66142738    -0.41100
N1868       N  0.80518277  0.66778541  0.60378603    -0.42500
H1869       H  0.77868189  0.68673409  0.63729636     0.13600
H1870       H  0.89218848  0.83292122  0.62765443     0.10100
H1871       H  0.80881511  0.76217789  0.59602814     0.11200
H1872       H  0.96077570  0.84730742  0.58558317     0.17000
C1873       C  0.74989505  0.60842458  0.67662343    -0.01200
C1874       C  0.79006537  0.62269017  0.68274216     0.07400
C1875       C  0.81961384  0.66593606  0.68244905    -0.07200
C1876       C  0.80949989  0.69469979  0.67658741     0.04800
C1877       C  0.76992820  0.68033388  0.66996287    -0.14400
C1878       C  0.74059750  0.63699497  0.67004102    -0.07700
C1879       C  0.80190300  0.59313588  0.68939891     0.05800
C1880       C  0.79698555  0.55869155  0.68136829    -0.08900
C1881       C  0.80749066  0.53021657  0.68716627     0.00700
C1882       C  0.82506397  0.53671150  0.70105110     0.00600
C1883       C  0.83007330  0.57096458  0.70915055    -0.12400
C1884       C  0.81815640  0.59877445  0.70353270     0.01100
C1885       C  0.79843977  0.49342124  0.67891250     0.40400
C1886       C  0.82122226  0.63175739  0.71268378     0.37000
C1887       C  0.71684375  0.56503283  0.67772919     0.36700
C1888       C  0.83904369  0.73891299  0.67865964     0.37500
N1889       N  0.79079450  0.46359169  0.67242228    -0.43300
N1890       N  0.82340162  0.65810738  0.72000809    -0.43800
N1891       N  0.86280594  0.77422736  0.68064687    -0.41100
N1892       N  0.69031185  0.53031614  0.67876138    -0.42500
H1893       H  0.70996326  0.62543162  0.66522052     0.13600
H1894       H  0.85046508  0.67747406  0.68717905     0.10100
H1895       H  0.78451642  0.55378081  0.67054651     0.11200
H1896       H  0.84310748  0.57587418  0.71986836     0.17000
C1897       C  0.31239616  0.00842564  0.87270496    -0.01200
C1898       C  0.32357516  0.02584367  0.85891811     0.07400
C1899       C  0.29195501  0.01439225  0.84849826    -0.07200
C1900       C  0.24943498  0.98873836  0.85203234     0.04800
C1901       C  0.23822164  0.97418051  0.86615644    -0.14400
C1902       C  0.27008371  0.98375315  0.87626915    -0.07700
C1903       C  0.36660819  0.06152686  0.85616601     0.05800
C1904       C  0.39425898  0.05623008  0.84745024    -0.08900
C1905       C  0.43578130  0.08934846  0.84550181     0.00700
C1906       C  0.45045317  0.12841169  0.85269247     0.00600
C1907       C  0.42164372  0.13371749  0.86084488    -0.12400
C1908       C  0.38026611  0.10114929  0.86247563     0.01100
C1909       C  0.46210771  0.08204269  0.83606322     0.40400
C1910       C  0.35208442  0.10937182  0.87056656     0.37000
C1911       C  0.34372840  0.01779827  0.88367375     0.36700
C1912       C  0.21773067  0.98029922  0.84132550     0.37500
N1913       N  0.48275422  0.07611777  0.82829103    -0.43300
N1914       N  0.32948572  0.11608010  0.87697487    -0.43800
N1915       N  0.19231112  0.97348016  0.83272886    -0.41100
N1916       N  0.36862813  0.02500603  0.89251314    -0.42500
H1917       H  0.26183231  0.97461348  0.88731106     0.13600
H1918       H  0.30030562  0.02781781  0.83789656     0.10100
H1919       H  0.38350028  0.02606761  0.84228306     0.11200
H1920       H  0.43130426  0.16364581  0.86601786     0.17000
C1921       C  0.06732859  0.94436100  0.94298795    -0.01200
C1922       C  0.06365961  0.90532082  0.93954605     0.07400
C1923       C  0.04701035  0.87320551  0.94976489    -0.07200
C1924       C  0.03257827  0.87897925  0.96298310     0.04800
C1925       C  0.03431771  0.91736132  0.96615990    -0.14400
C1926       C  0.05264872  0.95002057  0.95611473    -0.07700
C1927       C  0.07811595  0.89860122  0.92540863     0.05800
C1928       C  0.11655012  0.89973761  0.92461826    -0.08900
C1929       C  0.13651529  0.90483137  0.91141523     0.00700
C1930       C  0.11768045  0.90834500  0.89866565     0.00600
C1931       C  0.07702522  0.90230438  0.89937314    -0.12400
C1932       C  0.05725042  0.89750290  0.91255887     0.01100
C1933       C  0.17872609  0.91226492  0.91155853     0.40400
C1934       C  0.01683141  0.89457516  0.91275057     0.37000
C1935       C  0.08687390  0.97935102  0.93325234     0.36700
C1936       C  0.01842059  0.84600377  0.97344434     0.37500
N1937       N  0.21272285  0.91861702  0.91191817    -0.43300
N1938       N  0.98444004  0.89223771  0.91293685    -0.43800
N1939       N  0.00762801  0.81994988  0.98196677    -0.41100
N1940       N  0.10274821  0.00716567  0.92537732    -0.42500
H1941       H  0.05510710  0.98000152  0.95844261     0.13600
H1942       H  0.04533109  0.84360475  0.94741774     0.10100
H1943       H  0.13272405  0.90039592  0.93443341     0.11200
H1944       H  0.06236152  0.90540279  0.88971914     0.17000
C1945       C  0.87902349  0.50758969  0.86428881    -0.01200
C1946       C  0.90279011  0.51720701  0.85167539     0.07400
C1947       C  0.88452758  0.49173323  0.83955444    -0.07200
C1948       C  0.84384630  0.45702541  0.83976096     0.04800
C1949       C  0.82051194  0.44570951  0.85258128    -0.14400
C1950       C  0.83840484  0.47203071  0.86467082    -0.07700
C1951       C  0.94793595  0.55070568  0.85092534     0.05800
C1952       C  0.97693605  0.54771414  0.85990171    -0.08900
C1953       C  0.01997841  0.57042178  0.85699793     0.00700
C1954       C  0.03469266  0.59692565  0.84495448     0.00600
C1955       C  0.00625477  0.60328540  0.83688513    -0.12400
C1956       C  0.96317927  0.58034435  0.83971075     0.01100
C1957       C  0.04817179  0.56453657  0.86616422     0.40400
C1958       C  0.93498673  0.58571965  0.83035722     0.37000
C1959       C  0.89526477  0.53401547  0.87686554     0.36700
C1960       C  0.82703371  0.43458937  0.82642914     0.37500
N1961       N  0.07070294  0.55970140  0.87350866    -0.43300
N1962       N  0.91239025  0.58974914  0.82277496    -0.43800
N1963       N  0.81390096  0.41702760  0.81566377    -0.41100
N1964       N  0.90795615  0.55518032  0.88696191    -0.42500
H1965       H  0.82089686  0.46462754  0.87452291     0.13600
H1966       H  0.90255763  0.49862100  0.82982729     0.10100
H1967       H  0.96571949  0.52518907  0.86855491     0.11200
H1968       H  0.01721831  0.62367493  0.82763948     0.17000
C1969       C  0.19213365  0.68935521  0.75681749    -0.01200
C1970       C  0.20980529  0.68900928  0.77029988     0.07400
C1971       C  0.24577495  0.68522868  0.77061997    -0.07200
C1972       C  0.26274559  0.67986701  0.75801487     0.04800
C1973       C  0.24297089  0.67675259  0.74475945    -0.14400
C1974       C  0.20854169  0.68282420  0.74423770    -0.07700
C1975       C  0.18780574  0.68550994  0.78406115     0.05800
C1976       C  0.14568349  0.65344744  0.78517782    -0.08900
C1977       C  0.12533726  0.64317711  0.79832172     0.00700
C1978       C  0.14725602  0.66457484  0.81091835     0.00600
C1979       C  0.18864303  0.69814283  0.80982690    -0.12400
C1980       C  0.20890734  0.70901936  0.79651998     0.01100
C1981       C  0.08272503  0.60816979  0.79875816     0.40400
C1982       C  0.25172913  0.74344308  0.79602830     0.37000
C1983       C  0.15659139  0.69537716  0.75560409     0.36700
C1984       C  0.29852170  0.67426334  0.75906249     0.37500
N1985       N  0.04868873  0.57998260  0.79907443    -0.43300
N1986       N  0.28612250  0.77093707  0.79567160    -0.43800
N1987       N  0.32692249  0.66933583  0.75994102    -0.41100
N1988       N  0.12795307  0.69994539  0.75460151    -0.42500
H1989       H  0.19404048  0.68177773  0.73399649     0.13600
H1990       H  0.25933958  0.68399065  0.78080059     0.10100
H1991       H  0.12919419  0.63437423  0.77588236     0.11200
H1992       H  0.20580805  0.71443324  0.81945477     0.17000
C1993       C  0.11910138  0.73186596  0.85954915    -0.01200
C1994       C  0.12264534  0.76513134  0.85109920     0.07400
C1995       C  0.11666318  0.75892768  0.83618657    -0.07200
C1996       C  0.10838277  0.72078528  0.82973132     0.04800
C1997       C  0.10693089  0.68842841  0.83819361    -0.14400
C1998       C  0.11200373  0.69456368  0.85309961    -0.07700
C1999       C  0.13444198  0.80675354  0.85778845     0.05800
C2000       C  0.17252022  0.82864801  0.86545385    -0.08900
C2001       C  0.18415982  0.86636248  0.87275956     0.00700
C2002       C  0.15774005  0.88365585  0.87234290     0.00600
C2003       C  0.11969799  0.86185396  0.86457006    -0.12400
C2004       C  0.10784941  0.82379917  0.85739982     0.01100
C2005       C  0.22257448  0.88509443  0.88098878     0.40400
C2006       C  0.06774680  0.80232443  0.85009147     0.37000
C2007       C  0.12164730  0.73484019  0.87496290     0.36700
C2008       C  0.09997901  0.71506050  0.81457152     0.37500
N2009       N  0.25354647  0.89840891  0.88749823    -0.43300
N2010       N  0.03549196  0.78524401  0.84428480    -0.43800
N2011       N  0.09296853  0.71061675  0.80240726    -0.41100
N2012       N  0.12345223  0.73716224  0.88731455    -0.42500
H2013       H  0.11052785  0.66989647  0.85979326     0.13600
H2014       H  0.11873140  0.78400266  0.82957389     0.10100
H2015       H  0.19310366  0.81573010  0.86590908     0.11200
H2016       H  0.09931696  0.87496512  0.86400520     0.17000
C2017       C  0.42084061  0.12785167  0.25564627    -0.01200
C2018       C  0.46056868  0.16377915  0.25843990     0.07400
C2019       C  0.48769293  0.18359127  0.24694683    -0.07200
C2020       C  0.47744984  0.16607307  0.23318754     0.04800
C2021       C  0.44015757  0.12728632  0.23084054    -0.14400
C2022       C  0.41096775  0.10990647  0.24190583    -0.07700
C2023       C  0.47677066  0.17814584  0.27328797     0.05800
C2024       C  0.47916047  0.14972127  0.28264644    -0.08900
C2025       C  0.49973103  0.16292289  0.29592435     0.00700
C2026       C  0.51903209  0.20585538  0.30010829     0.00600
C2027       C  0.51468432  0.23379742  0.29099470    -0.12400
C2028       C  0.49404520  0.22038691  0.27769951     0.01100
C2029       C  0.50068928  0.13150720  0.30487893     0.40400
C2030       C  0.49168714  0.25070997  0.26860669     0.37000
C2031       C  0.39044565  0.10777307  0.26681251     0.36700
C2032       C  0.50642999  0.18748415  0.22173273     0.37500
N2033       N  0.50161935  0.10641602  0.31203487    -0.43300
N2034       N  0.48988531  0.27485098  0.26120171    -0.43800
N2035       N  0.52945205  0.20481146  0.21251928    -0.41100
N2036       N  0.36588821  0.09153233  0.27570448    -0.42500
H2037       H  0.38196674  0.08030840  0.24016530     0.13600
H2038       H  0.51805826  0.21151058  0.24886098     0.10100
H2039       H  0.46624323  0.11722820  0.27932520     0.11200
H2040       H  0.52885061  0.26667865  0.29397814     0.17000
C2041       C  0.34903586  0.94271171  0.18445417    -0.01200
C2042       C  0.34162901  0.91287239  0.19517300     0.07400
C2043       C  0.34886139  0.92582960  0.20951454    -0.07200
C2044       C  0.36705908  0.96825125  0.21320796     0.04800
C2045       C  0.37683451  0.99867707  0.20245804    -0.14400
C2046       C  0.36633572  0.98536399  0.18818513    -0.07700
C2047       C  0.33513990  0.87055537  0.19186092     0.05800
C2048       C  0.36830327  0.86378044  0.19506422    -0.08900
C2049       C  0.36351930  0.82386278  0.19388761     0.00700
C2050       C  0.32482271  0.78936692  0.18913881     0.00600
C2051       C  0.29198767  0.79650631  0.18534247    -0.12400
C2052       C  0.29669924  0.83664360  0.18686198     0.01100
C2053       C  0.39908210  0.81959945  0.19772929     0.40400
C2054       C  0.26123384  0.84187240  0.18398398     0.37000
C2055       C  0.34297168  0.93098910  0.16952732     0.36700
C2056       C  0.37916119  0.98014741  0.22798564     0.37500
N2057       N  0.42768403  0.81657017  0.20098058    -0.43300
N2058       N  0.23276537  0.84608691  0.18175430    -0.43800
N2059       N  0.38897996  0.98936524  0.23982194    -0.41100
N2060       N  0.33819398  0.92164340  0.15754792    -0.42500
H2061       H  0.37488085  0.00865192  0.17985685     0.13600
H2062       H  0.34361384  0.90308320  0.21777166     0.10100
H2063       H  0.39796518  0.88986851  0.19889482     0.11200
H2064       H  0.26206459  0.77038812  0.18174941     0.17000
C2065       C  0.16273111  0.09483572  0.12367611    -0.01200
C2066       C  0.13384266  0.05170774  0.12150566     0.07400
C2067       C  0.11942596  0.02495056  0.13338839    -0.07200
C2068       C  0.13032790  0.04136963  0.14734989     0.04800
C2069       C  0.15540228  0.08513670  0.14953596    -0.14400
C2070       C  0.17259921  0.11128793  0.13760620    -0.07700
C2071       C  0.11168169  0.03624227  0.10751065     0.05800
C2072       C  0.12876077  0.02355017  0.09661502    -0.08900
C2073       C  0.10870124  0.01079666  0.08315660     0.00700
C2074       C  0.07062273  0.01012356  0.08054673     0.00600
C2075       C  0.05412908  0.02347180  0.09145408    -0.12400
C2076       C  0.07433783  0.03664961  0.10476195     0.01100
C2077       C  0.12939196  0.00167791  0.07193329     0.40400
C2078       C  0.05678707  0.05165621  0.11535921     0.37000
C2079       C  0.17959510  0.12324628  0.11174836     0.36700
C2080       C  0.11289392  0.01333404  0.15933086     0.37500
N2081       N  0.14653529  0.99514561  0.06291309    -0.43300
N2082       N  0.04297941  0.06398855  0.12383216    -0.43800
N2083       N  0.09924679  0.99106807  0.16900940    -0.41100
N2084       N  0.19326517  0.14585879  0.10215495    -0.42500
H2085       H  0.19047370  0.14511635  0.13911947     0.13600
H2086       H  0.09727078  0.99169908  0.13178601     0.10100
H2087       H  0.15818443  0.02450013  0.09852860     0.11200
H2088       H  0.02519709  0.02358586  0.08958249     0.17000
C2089       C  0.25316435  0.27292525  0.17333667    -0.01200
C2090       C  0.24111243  0.29154673  0.18409602     0.07400
C2091       C  0.21057132  0.26529719  0.19395883    -0.07200
C2092       C  0.19042366  0.22143342  0.19273391     0.04800
C2093       C  0.20068231  0.20299842  0.18144815    -0.14400
C2094       C  0.23324513  0.22907619  0.17221834    -0.07700
C2095       C  0.25590076  0.33747721  0.18427619     0.05800
C2096       C  0.24925838  0.35534487  0.17204592    -0.08900
C2097       C  0.25825428  0.39703773  0.17201613     0.00700
C2098       C  0.27411108  0.42223179  0.18459360     0.00600
C2099       C  0.28190547  0.40452441  0.19672695    -0.12400
C2100       C  0.27272533  0.36262830  0.19668931     0.01100
C2101       C  0.25022578  0.41235832  0.15885242     0.40400
C2102       C  0.28005160  0.34587518  0.20961919     0.37000
C2103       C  0.28409271  0.29780826  0.16277492     0.36700
C2104       C  0.15805171  0.19606601  0.20281000     0.37500
N2105       N  0.24346675  0.42426314  0.14828918    -0.43300
N2106       N  0.28539737  0.33211375  0.21999817    -0.43800
N2107       N  0.13211934  0.17592988  0.21091884    -0.41100
N2108       N  0.30841522  0.31729481  0.15412711    -0.42500
H2109       H  0.24083546  0.21527815  0.16334971     0.13600
H2110       H  0.20063305  0.27904163  0.20216776     0.10100
H2111       H  0.23558982  0.33610221  0.16253178     0.11200
H2112       H  0.29404027  0.42298463  0.20646542     0.17000
C2113       C  0.35325551  0.13229895  0.19624177    -0.01200
C2114       C  0.30973183  0.10301739  0.19664127     0.07400
C2115       C  0.29621171  0.06360423  0.20293599    -0.07200
C2116       C  0.32497919  0.05296915  0.20856516     0.04800
C2117       C  0.36850444  0.08145898  0.20752337    -0.14400
C2118       C  0.38194401  0.12119563  0.20147534    -0.07700
C2119       C  0.27804555  0.11237442  0.19021782     0.05800
C2120       C  0.28223800  0.12553482  0.17589686    -0.08900
C2121       C  0.25313909  0.13430619  0.16941319     0.00700
C2122       C  0.21770767  0.12788210  0.17699656     0.00600
C2123       C  0.21357397  0.11504812  0.19134695    -0.12400
C2124       C  0.24357861  0.10803904  0.19804654     0.01100
C2125       C  0.26198508  0.15247633  0.15536478     0.40400
C2126       C  0.23920677  0.09820690  0.21310224     0.37000
C2127       C  0.36935043  0.17427208  0.19076990     0.36700
C2128       C  0.30861508  0.01357726  0.21593202     0.37500
N2129       N  0.27038654  0.16798950  0.14421632    -0.43300
N2130       N  0.23585699  0.09061072  0.22518653    -0.43800
N2131       N  0.29427847  0.98187981  0.22190168    -0.41100
N2132       N  0.38220954  0.20788204  0.18637479    -0.42500
H2133       H  0.41525993  0.14367683  0.20074242     0.13600
H2134       H  0.26290097  0.04088125  0.20343321     0.10100
H2135       H  0.30868633  0.12942203  0.16976386     0.11200
H2136       H  0.18687661  0.11096323  0.19737520     0.17000
C2137       C  0.36505368  0.93144211  0.36456588    -0.01200
C2138       C  0.38036682  0.96218233  0.35373101     0.07400
C2139       C  0.37001497  0.94926829  0.33944587    -0.07200
C2140       C  0.34788504  0.90657321  0.33574783     0.04800
C2141       C  0.33508312  0.87565503  0.34647332    -0.14400
C2142       C  0.34271996  0.88843645  0.36087103    -0.07700
C2143       C  0.41256626  0.00705698  0.35655700     0.05800
C2144       C  0.45326509  0.01674175  0.36049795    -0.08900
C2145       C  0.48675068  0.05842267  0.36059177     0.00700
C2146       C  0.47978884  0.09131354  0.35671579     0.00600
C2147       C  0.43879376  0.08202784  0.35353745    -0.12400
C2148       C  0.40527990  0.04021293  0.35334551     0.01100
C2149       C  0.52804333  0.06686845  0.36475811     0.40400
C2150       C  0.36375721  0.03191997  0.34970747     0.37000
C2151       C  0.37294633  0.94340134  0.37946430     0.36700
C2152       C  0.34277446  0.89541259  0.32076006     0.37500
N2153       N  0.56112345  0.07385950  0.36819270    -0.43300
N2154       N  0.33042790  0.02528096  0.34684256    -0.43800
N2155       N  0.33928532  0.88674638  0.30873444    -0.41100
N2156       N  0.37897561  0.95300368  0.39141738    -0.42500
H2157       H  0.33340793  0.86492815  0.36915978     0.13600
H2158       H  0.38199649  0.97266323  0.33105713     0.10100
H2159       H  0.45919214  0.99148585  0.36294910     0.11200
H2160       H  0.43317782  0.10732460  0.35081151     0.17000
C2161       C  0.26940740  0.69485911  0.30003675    -0.01200
C2162       C  0.25684211  0.71079026  0.28852513     0.07400
C2163       C  0.24818486  0.74302766  0.29124258    -0.07200
C2164       C  0.25614810  0.76248863  0.30474782     0.04800
C2165       C  0.27344755  0.74981271  0.31587261    -0.14400
C2166       C  0.27756930  0.71438474  0.31350790    -0.07700
C2167       C  0.25707710  0.69752573  0.27343587     0.05800
C2168       C  0.23009760  0.65564661  0.26920044    -0.08900
C2169       C  0.23217637  0.64154337  0.25543705     0.00700
C2170       C  0.26167040  0.66974506  0.24545392     0.00600
C2171       C  0.28772853  0.71205130  0.24966099    -0.12400
C2172       C  0.28580890  0.72595818  0.26343502     0.01100
C2173       C  0.20496265  0.59749395  0.25225303     0.40400
C2174       C  0.31524394  0.76918798  0.26727780     0.37000
C2175       C  0.27738607  0.66072555  0.29805159     0.36700
C2176       C  0.24931874  0.79739951  0.30631253     0.37500
N2177       N  0.18292852  0.56211606  0.24980206    -0.43300
N2178       N  0.33883757  0.80379860  0.27037633    -0.43800
N2179       N  0.24308257  0.82502855  0.30719789    -0.41100
N2180       N  0.28356536  0.63322430  0.29648921    -0.42500
H2181       H  0.29034934  0.70389920  0.32195344     0.13600
H2182       H  0.23743898  0.75467844  0.28252079     0.10100
H2183       H  0.20796271  0.63360578  0.27682224     0.11200
H2184       H  0.31057343  0.73437305  0.24227075     0.17000
C2185       C  0.05749819  0.87078178  0.44821898    -0.01200
C2186       C  0.02490760  0.83957578  0.43972382     0.07400
C2187       C  0.98329688  0.82316949  0.44402846    -0.07200
C2188       C  0.97367378  0.83752416  0.45651117     0.04800
C2189       C  0.00640135  0.86888093  0.46522624    -0.14400
C2190       C  0.04817505  0.88510126  0.46081551    -0.07700
C2191       C  0.03281116  0.82442146  0.42596699     0.05800
C2192       C  0.02576038  0.78336263  0.42509819    -0.08900
C2193       C  0.02387230  0.76475788  0.41179806     0.00700
C2194       C  0.02778249  0.78692912  0.39904904     0.00600
C2195       C  0.03909688  0.82940144  0.40003352    -0.12400
C2196       C  0.04198251  0.84834013  0.41335870     0.01100
C2197       C  0.01314523  0.72128885  0.41143977     0.40400
C2198       C  0.05088979  0.89121187  0.41376213     0.37000
C2199       C  0.10072470  0.88828431  0.44419300     0.36700
C2200       C  0.92976736  0.82033529  0.45966718     0.37500
N2201       N  0.00484126  0.68654020  0.41114785    -0.43300
N2202       N  0.05831171  0.92567232  0.41415481    -0.43800
N2203       N  0.89459035  0.80653673  0.46215778    -0.41100
N2204       N  0.13528646  0.90215769  0.44084181    -0.42500
H2205       H  0.07379397  0.90897242  0.46723926     0.13600
H2206       H  0.95806638  0.79951769  0.43740053     0.10100
H2207       H  0.01926329  0.76498148  0.43476930     0.11200
H2208       H  0.04160739  0.84655234  0.39032948     0.17000
C2209       C  0.87194782  0.50660762  0.35028271    -0.01200
C2210       C  0.87312149  0.53822884  0.35903218     0.07400
C2211       C  0.83704308  0.53004706  0.36642687    -0.07200
C2212       C  0.79996326  0.49106034  0.36526489     0.04800
C2213       C  0.79890915  0.45826912  0.35697368    -0.14400
C2214       C  0.83530950  0.46680979  0.34949334    -0.07700
C2215       C  0.90955386  0.58181119  0.35956025     0.05800
C2216       C  0.90906699  0.61126717  0.35028529    -0.08900
C2217       C  0.93485489  0.65439783  0.35288511     0.00700
C2218       C  0.96186248  0.66872316  0.36497023     0.00600
C2219       C  0.96611481  0.63923281  0.37321531    -0.12400
C2220       C  0.93984606  0.59584616  0.37066571     0.01100
C2221       C  0.93006877  0.68319412  0.34374887     0.40400
C2222       C  0.94211917  0.56631073  0.38019690     0.37000
C2223       C  0.90743745  0.51489934  0.34166591     0.36700
C2224       C  0.76304827  0.48690148  0.37200834     0.37500
N2225       N  0.92579126  0.70591855  0.33637312    -0.43300
N2226       N  0.94394508  0.54253821  0.38778990    -0.43800
N2227       N  0.73342890  0.48368358  0.37731736    -0.41100
N2228       N  0.93578203  0.52181865  0.33463595    -0.42500
H2229       H  0.83516157  0.44252127  0.34291721     0.13600
H2230       H  0.83746668  0.55495755  0.37274110     0.10100
H2231       H  0.88602006  0.60052317  0.34166472     0.11200
H2232       H  0.98662100  0.64978637  0.38254654     0.17000
C2233       C  0.12016255  0.75396620  0.37429420    -0.01200
C2234       C  0.12981441  0.76826564  0.36001159     0.07400
C2235       C  0.10034554  0.77339881  0.35209366    -0.07200
C2236       C  0.06217879  0.76462427  0.35807474     0.04800
C2237       C  0.05158189  0.74828797  0.37205847    -0.14400
C2238       C  0.08114833  0.74372692  0.38012450    -0.07700
C2239       C  0.17001232  0.77749183  0.35308183     0.05800
C2240       C  0.18055999  0.74594408  0.35258239    -0.08900
C2241       C  0.21829840  0.75339369  0.34654200     0.00700
C2242       C  0.24640191  0.79304364  0.34052354     0.00600
C2243       C  0.23538719  0.82428814  0.34074167    -0.12400
C2244       C  0.19769357  0.81687863  0.34684599     0.01100
C2245       C  0.22839371  0.72049348  0.34750122     0.40400
C2246       C  0.18892826  0.85078184  0.34697778     0.37000
C2247       C  0.15032780  0.75087659  0.38332118     0.36700
C2248       C  0.03526594  0.77469351  0.34987452     0.37500
N2249       N  0.23627731  0.69396388  0.34833707    -0.43300
N2250       N  0.18182960  0.87791901  0.34699644    -0.43800
N2251       N  0.01433180  0.78361869  0.34328577    -0.41100
N2252       N  0.17465937  0.74861095  0.39054712    -0.42500
H2253       H  0.07383157  0.73228056  0.39097071     0.13600
H2254       H  0.10728235  0.78460899  0.34118619     0.10100
H2255       H  0.15942063  0.71541494  0.35715286     0.11200
H2256       H  0.25655855  0.85483614  0.33624484     0.17000
C2257       C  0.24903032  0.27663776  0.04399727    -0.01200
C2258       C  0.23122004  0.25917803  0.03049093     0.07400
C2259       C  0.24471415  0.28533510  0.01843008    -0.07200
C2260       C  0.27371605  0.32854891  0.01980642     0.04800
C2261       C  0.28938065  0.34622519  0.03343484    -0.14400
C2262       C  0.27680178  0.31988091  0.04539447    -0.07700
C2263       C  0.19462569  0.21554679  0.02917777     0.05800
C2264       C  0.15924547  0.20487336  0.03744229    -0.08900
C2265       C  0.12357968  0.16477369  0.03675642     0.00700
C2266       C  0.12225464  0.13379607  0.02737185     0.00600
C2267       C  0.15773900  0.14487826  0.01890480    -0.12400
C2268       C  0.19356868  0.18527022  0.01969969     0.01100
C2269       C  0.08901488  0.15730496  0.04577947     0.40400
C2270       C  0.22888925  0.19485332  0.01075835     0.37000
C2271       C  0.23853468  0.25100748  0.05666208     0.36700
C2272       C  0.28513559  0.35450674  0.00722984     0.37500
N2273       N  0.06172557  0.15170131  0.05315193    -0.43300
N2274       N  0.25715728  0.20286812  0.00352027    -0.43800
N2275       N  0.29419197  0.37512878  0.99709514    -0.41100
N2276       N  0.23020857  0.23051541  0.06681413    -0.42500
H2277       H  0.28792950  0.33343746  0.05595640     0.13600
H2278       H  0.23088702  0.27246462  0.00803379     0.10100
H2279       H  0.15937066  0.22837935  0.04446127     0.11200
H2280       H  0.15771540  0.12193844  0.01164728     0.17000
C2281       C  0.40169073  0.55073676  0.11419852    -0.01200
C2282       C  0.37035264  0.52306407  0.10453015     0.07400
C2283       C  0.32813676  0.50761236  0.10779190    -0.07200
C2284       C  0.31652967  0.51917014  0.12042790     0.04800
C2285       C  0.34762555  0.54609437  0.13045204    -0.14400
C2286       C  0.39019821  0.56169828  0.12708308    -0.07700
C2287       C  0.37947961  0.51079541  0.09047637     0.05800
C2288       C  0.37830337  0.47229342  0.08924533    -0.08900
C2289       C  0.37145613  0.45214984  0.07589381     0.00700
C2290       C  0.36426764  0.47011895  0.06364992     0.00600
C2291       C  0.37084650  0.51105309  0.06470152    -0.12400
C2292       C  0.37884165  0.53160097  0.07795329     0.01100
C2293       C  0.36790374  0.41139407  0.07535594     0.40400
C2294       C  0.38291848  0.57260201  0.07862815     0.37000
C2295       C  0.44561245  0.56904753  0.11096102     0.36700
C2296       C  0.27258447  0.50481618  0.12227068     0.37500
N2297       N  0.36555598  0.37892108  0.07501731    -0.43300
N2298       N  0.38655288  0.60562438  0.07916990    -0.43800
N2299       N  0.23737897  0.49353460  0.12365529    -0.41100
N2300       N  0.48088061  0.58408064  0.10838184    -0.42500
H2301       H  0.41470612  0.58283824  0.13446333     0.13600
H2302       H  0.30401643  0.48712137  0.10016790     0.10100
H2303       H  0.37934513  0.45639454  0.09884849     0.11200
H2304       H  0.36636751  0.52562226  0.05531348     0.17000
C2305       C  0.56913898  0.43353634  0.95101333    -0.01200
C2306       C  0.56692206  0.39473510  0.94828805     0.07400
C2307       C  0.57054824  0.37249257  0.95986179    -0.07200
C2308       C  0.58191760  0.39079106  0.97349773     0.04800
C2309       C  0.58966378  0.43187413  0.97573422    -0.14400
C2310       C  0.58047959  0.45176793  0.96469669    -0.07700
C2311       C  0.57053329  0.38150262  0.93352808     0.05800
C2312       C  0.60475322  0.40988756  0.92524937    -0.08900
C2313       C  0.61439978  0.39750010  0.91237394     0.00700
C2314       C  0.59037956  0.35516221  0.90766692     0.00600
C2315       C  0.55483126  0.32721536  0.91565435    -0.12400
C2316       C  0.54465961  0.34005741  0.92838174     0.01100
C2317       C  0.64889051  0.42935024  0.90424656     0.40400
C2318       C  0.50760518  0.31013772  0.93597843     0.37000
C2319       C  0.56379312  0.45698879  0.93966780     0.36700
C2320       C  0.59012361  0.36887494  0.98466883     0.37500
N2321       N  0.67639080  0.45511054  0.89774702    -0.43300
N2322       N  0.47782350  0.28614636  0.94202014    -0.43800
N2323       N  0.59684815  0.35143936  0.99363162    -0.41100
N2324       N  0.55986948  0.47596481  0.93056107    -0.42500
H2325       H  0.58693992  0.48364105  0.96626113     0.13600
H2326       H  0.56887771  0.34267791  0.95798022     0.10100
H2327       H  0.62510757  0.44178340  0.92910790     0.11200
H2328       H  0.53527529  0.29482001  0.91215864     0.17000
C2329       C  0.67585965  0.61835877  0.00855231    -0.01200
C2330       C  0.71000834  0.63337847  0.01819659     0.07400
C2331       C  0.71838223  0.60477881  0.02514527    -0.07200
C2332       C  0.69618571  0.56211452  0.02139553     0.04800
C2333       C  0.66499282  0.54772113  0.01057039    -0.14400
C2334       C  0.65328242  0.57555214  0.00491114    -0.07700
C2335       C  0.74243356  0.67850486  0.01878504     0.05800
C2336       C  0.73855250  0.70580928  0.02819678    -0.08900
C2337       C  0.76967242  0.74853602  0.02896939     0.00700
C2338       C  0.80587598  0.76427291  0.02030416     0.00600
C2339       C  0.80890039  0.73640508  0.01076136    -0.12400
C2340       C  0.77754701  0.69419072  0.00984965     0.01100
C2341       C  0.76286868  0.77523456  0.03851326     0.40400
C2342       C  0.78182282  0.66748336  0.99951662     0.37000
C2343       C  0.66646309  0.64698565  0.00117143     0.36700
C2344       C  0.70807796  0.53430857  0.02801218     0.37500
N2345       N  0.75734092  0.79664486  0.04613527    -0.43300
N2346       N  0.78502212  0.64609734  0.99118557    -0.43800
N2347       N  0.71772692  0.51213667  0.03333464    -0.41100
N2348       N  0.65916543  0.67008845  0.99524726    -0.42500
H2349       H  0.62961812  0.56487661  0.99650356     0.13600
H2350       H  0.74456708  0.61635467  0.03262842     0.10100
H2351       H  0.71111509  0.69370616  0.03490727     0.11200
H2352       H  0.83601675  0.74737129  0.00396088     0.17000
C2353       C  0.50918048  0.46966014  0.00368973    -0.01200
C2354       C  0.50029860  0.45153625  0.01747600     0.07400
C2355       C  0.52850579  0.44144798  0.02387012    -0.07200
C2356       C  0.56566205  0.45058043  0.01702200     0.04800
C2357       C  0.57562763  0.47090372  0.00366819    -0.14400
C2358       C  0.54698861  0.47982041  0.99702169    -0.07700
C2359       C  0.46185541  0.44274176  0.02538660     0.05800
C2360       C  0.43367664  0.40164431  0.02987367    -0.08900
C2361       C  0.39658357  0.39186726  0.03700903     0.00700
C2362       C  0.38624674  0.42350533  0.03937405     0.00600
C2363       C  0.41588375  0.46507886  0.03545828    -0.12400
C2364       C  0.45355856  0.47494676  0.02886837     0.01100
C2365       C  0.37184548  0.34972303  0.04235162     0.40400
C2366       C  0.48358546  0.51854698  0.02602588     0.37000
C2367       C  0.47935443  0.47674690  0.99598579     0.36700
C2368       C  0.59281221  0.43789102  0.02367212     0.37500
N2369       N  0.35397143  0.31559550  0.04657205    -0.43300
N2370       N  0.50775065  0.55347550  0.02377700    -0.43800
N2371       N  0.61449160  0.42744157  0.02890913    -0.41100
N2372       N  0.45531499  0.48224240  0.98981435    -0.42500
H2373       H  0.55419288  0.49471610  0.98664851     0.13600
H2374       H  0.52158161  0.42660815  0.03427494     0.10100
H2375       H  0.44074816  0.37698673  0.02777957     0.11200
H2376       H  0.40923968  0.49012095  0.03724203     0.17000
C2377       C  0.15866514  0.57226740  0.61058809    -0.01200
C2378       C  0.13792540  0.52921173  0.60694807     0.07400
C2379       C  0.14131970  0.50123193  0.61616270    -0.07200
C2380       C  0.16483628  0.51501199  0.62881501     0.04800
C2381       C  0.18574916  0.55827453  0.63272215    -0.14400
C2382       C  0.18189340  0.58640134  0.62347653    -0.07700
C2383       C  0.11494942  0.51158582  0.59319944     0.05800
C2384       C  0.13854113  0.51797492  0.58082708    -0.08900
C2385       C  0.12216297  0.48899455  0.56945830     0.00700
C2386       C  0.08143245  0.45342273  0.57034376     0.00600
C2387       C  0.05577787  0.45093302  0.58168012    -0.12400
C2388       C  0.07229384  0.47947468  0.59315083     0.01100
C2389       C  0.14950424  0.49327054  0.55785625     0.40400
C2390       C  0.04655303  0.47194651  0.60556238     0.37000
C2391       C  0.15661948  0.60228028  0.60125031     0.36700
C2392       C  0.16607961  0.48328089  0.63749252     0.37500
N2393       N  0.17146275  0.49660419  0.54858567    -0.43300
N2394       N  0.02599841  0.46566262  0.61554623    -0.43800
N2395       N  0.16673575  0.45752573  0.64434623    -0.41100
N2396       N  0.15501365  0.62630159  0.59372341    -0.42500
H2397       H  0.19783064  0.61963860  0.62612439     0.13600
H2398       H  0.12593829  0.46814138  0.61326933     0.10100
H2399       H  0.17131536  0.54256963  0.58075505     0.11200
H2400       H  0.02473525  0.42352999  0.58259732     0.17000
C2401       C  0.97097295  0.24151354  0.54300421    -0.01200
C2402       C  0.98996958  0.23800208  0.53047354     0.07400
C2403       C  0.01857778  0.27472347  0.52327376    -0.07200
C2404       C  0.03237242  0.31443569  0.52934382     0.04800
C2405       C  0.01744756  0.31763570  0.54281637    -0.14400
C2406       C  0.98506003  0.28126148  0.54912696    -0.07700
C2407       C  0.98794428  0.19786831  0.52666729     0.05800
C2408       C  0.95178923  0.16464581  0.52026900    -0.08900
C2409       C  0.94882173  0.12567627  0.51760102     0.00700
C2410       C  0.98231118  0.11940911  0.52163370     0.00600
C2411       C  0.01884857  0.15336624  0.52756963    -0.12400
C2412       C  0.02194031  0.19215698  0.53008454     0.01100
C2413       C  0.91047489  0.09238451  0.51127246     0.40400
C2414       C  0.05986367  0.22523856  0.53673926     0.37000
C2415       C  0.93994280  0.20472819  0.55047929     0.36700
C2416       C  0.06490587  0.35109307  0.52225775     0.37500
N2417       N  0.87985589  0.06572922  0.50612481    -0.43300
N2418       N  0.09022381  0.25175559  0.54206414    -0.43800
N2419       N  0.09085826  0.38036280  0.51647807    -0.41100
N2420       N  0.91483148  0.17540916  0.55648001    -0.42500
H2421       H  0.97361109  0.28353971  0.55952954     0.13600
H2422       H  0.03294175  0.27220314  0.51355555     0.10100
H2423       H  0.92565219  0.16896997  0.51758281     0.11200
H2424       H  0.04499735  0.14939704  0.53049949     0.17000
C2425       C  0.89376244  0.68181981  0.51686605    -0.01200
C2426       C  0.92466314  0.67212944  0.52092182     0.07400
C2427       C  0.96358198  0.70438654  0.52610691    -0.07200
C2428       C  0.97216725  0.74616032  0.52702375     0.04800
C2429       C  0.94134636  0.75601824  0.52265137    -0.14400
C2430       C  0.90222365  0.72322916  0.51774253    -0.07700
C2431       C  0.91649898  0.62857354  0.51890588     0.05800
C2432       C  0.91756392  0.61535427  0.50495188    -0.08900
C2433       C  0.89749397  0.57252359  0.50145272     0.00700
C2434       C  0.87756927  0.54187446  0.51219472     0.00600
C2435       C  0.87974013  0.55521776  0.52640323    -0.12400
C2436       C  0.89866015  0.59826308  0.52979666     0.01100
C2437       C  0.89211497  0.56108587  0.48647821     0.40400
C2438       C  0.89550674  0.61049569  0.54417582     0.37000
C2439       C  0.85314489  0.64958907  0.51155880     0.36700
C2440       C  0.01343813  0.77840071  0.53177437     0.37500
N2441       N  0.88710561  0.55244742  0.47443918    -0.43300
N2442       N  0.89282954  0.62051765  0.55566140    -0.43800
N2443       N  0.04655914  0.80423286  0.53555482    -0.41100
N2444       N  0.82075779  0.62355119  0.50729045    -0.42500
H2445       H  0.87800574  0.72995199  0.51450109     0.13600
H2446       H  0.98752380  0.69707600  0.52913525     0.10100
H2447       H  0.93019343  0.63848900  0.49648886     0.11200
H2448       H  0.86326034  0.53198860  0.53461179     0.17000
C2449       C  0.76015024  0.35688606  0.46743180    -0.01200
C2450       C  0.78976529  0.37034642  0.45631493     0.07400
C2451       C  0.83131896  0.40220115  0.45930691    -0.07200
C2452       C  0.84257995  0.42342395  0.47253765     0.04800
C2453       C  0.81198337  0.41240016  0.48319880    -0.14400
C2454       C  0.77172049  0.37737581  0.48074394    -0.07700
C2455       C  0.77672190  0.35738063  0.44108850     0.05800
C2456       C  0.78399825  0.38881972  0.43112691    -0.08900
C2457       C  0.76903269  0.37870172  0.41701378     0.00700
C2458       C  0.74501312  0.33612609  0.41266073     0.00600
C2459       C  0.73999105  0.30479342  0.42235659    -0.12400
C2460       C  0.75592209  0.31504613  0.43639355     0.01100
C2461       C  0.77973204  0.41272446  0.40716461     0.40400
C2462       C  0.75059932  0.28154758  0.44569617     0.37000
C2463       C  0.71650046  0.32569100  0.46505007     0.36700
C2464       C  0.88433596  0.45929658  0.47415292     0.37500
N2465       N  0.78871490  0.44003968  0.39926222    -0.43300
N2466       N  0.74608850  0.25446336  0.45308508    -0.43800
N2467       N  0.91794320  0.48800701  0.47528523    -0.41100
N2468       N  0.68149087  0.30070914  0.46321228    -0.42500
H2469       H  0.74784630  0.36873510  0.48880275     0.13600
H2470       H  0.85434085  0.41271412  0.45086969     0.10100
H2471       H  0.80083180  0.42155726  0.43447400     0.11200
H2472       H  0.72245859  0.27198321  0.41911618     0.17000
C2473       C  0.94945235  0.47651698  0.51862092    -0.01200
C2474       C  0.93535652  0.43471844  0.52290477     0.07400
C2475       C  0.89301157  0.40431420  0.52064202    -0.07200
C2476       C  0.86502520  0.41470260  0.51427110     0.04800
C2477       C  0.87958487  0.45586527  0.50902161    -0.14400
C2478       C  0.92207842  0.48639133  0.51136479    -0.07700
C2479       C  0.96324568  0.42248622  0.53062078     0.05800
C2480       C  0.95050507  0.40201542  0.54388503    -0.08900
C2481       C  0.97578142  0.39030375  0.55151497     0.00700
C2482       C  0.01523464  0.40047016  0.54620978     0.00600
C2483       C  0.02774161  0.41995986  0.53288106    -0.12400
C2484       C  0.00169558  0.42992796  0.52489267     0.01100
C2485       C  0.96037880  0.36699070  0.56459013     0.40400
C2486       C  0.01410229  0.44565922  0.51057710     0.37000
C2487       C  0.99089625  0.51031124  0.52252257     0.36700
C2488       C  0.82094875  0.38346358  0.51464692     0.37500
N2489       N  0.94792264  0.34803624  0.57503611    -0.43300
N2490       N  0.02396426  0.45803033  0.49907188    -0.43800
N2491       N  0.78563413  0.35840996  0.51522144    -0.41100
N2492       N  0.02405035  0.53712079  0.52584496    -0.42500
H2493       H  0.93380002  0.51834519  0.50786289     0.13600
H2494       H  0.88133773  0.37248285  0.52437321     0.10100
H2495       H  0.92063819  0.39502428  0.54827723     0.11200
H2496       H  0.05761703  0.42663578  0.52862173     0.17000
C2497       C  0.71426935  0.54390886  0.85925547    -0.01200
C2498       C  0.68273303  0.55344311  0.85592883     0.07400
C2499       C  0.64470820  0.52191775  0.84994567    -0.07200
C2500       C  0.63687498  0.48067334  0.84809958     0.04800
C2501       C  0.66707265  0.47023542  0.85274216    -0.14400
C2502       C  0.70595513  0.50259274  0.85795226    -0.07700
C2503       C  0.68836807  0.59530423  0.85966747     0.05800
C2504       C  0.69468823  0.62439548  0.84887743    -0.08900
C2505       C  0.70855468  0.66664232  0.85236925     0.00700
C2506       C  0.71578495  0.67986178  0.86677884     0.00600
C2507       C  0.70457765  0.64964023  0.87752015    -0.12400
C2508       C  0.69143391  0.60781111  0.87411014     0.01100
C2509       C  0.71761851  0.69657340  0.84108087     0.40400
C2510       C  0.68469911  0.57912615  0.88564488     0.37000
C2511       C  0.75568976  0.57618441  0.86387276     0.36700
C2512       C  0.59718724  0.44972949  0.84182144     0.37500
N2513       N  0.72460774  0.72076239  0.83211166    -0.43300
N2514       N  0.67976685  0.55634905  0.89490493    -0.43800
N2515       N  0.56550151  0.42523986  0.83662408    -0.41100
N2516       N  0.78908415  0.60197393  0.86741325    -0.42500
H2517       H  0.73016277  0.49563496  0.86097796     0.13600
H2518       H  0.62070860  0.52928886  0.84706224     0.10100
H2519       H  0.69153128  0.61482942  0.83775544     0.11200
H2520       H  0.71048141  0.65969248  0.88863111     0.17000
C2521       C  0.75909224  0.81501627  0.91999356    -0.01200
C2522       C  0.80003208  0.84836968  0.92336228     0.07400
C2523       C  0.82977544  0.86448490  0.91239873    -0.07200
C2524       C  0.82061046  0.84562696  0.89879939     0.04800
C2525       C  0.78136274  0.80901454  0.89599555    -0.14400
C2526       C  0.75015402  0.79555530  0.90643818    -0.07700
C2527       C  0.81423609  0.86294294  0.93846303     0.05800
C2528       C  0.80872357  0.83299000  0.94880369    -0.08900
C2529       C  0.82607303  0.84507104  0.96259622     0.00700
C2530       C  0.85110462  0.88816244  0.96624968     0.00600
C2531       C  0.85480497  0.91817245  0.95617976    -0.12400
C2532       C  0.83644721  0.90594681  0.94245393     0.01100
C2533       C  0.81659235  0.81243768  0.97290968     0.40400
C2534       C  0.84051397  0.93804278  0.93269063     0.37000
C2535       C  0.72619558  0.79921091  0.93046079     0.36700
C2536       C  0.85290145  0.86308723  0.88809606     0.37500
N2537       N  0.80846092  0.78619773  0.98119007    -0.43300
N2538       N  0.84354578  0.96369594  0.92487067    -0.43800
N2539       N  0.87869169  0.87681657  0.87949248    -0.41100
N2540       N  0.69990259  0.78663573  0.93888240    -0.42500
H2541       H  0.71976650  0.76778660  0.90445585     0.13600
H2542       H  0.86120892  0.89030614  0.91469209     0.10100
H2543       H  0.79157806  0.79983968  0.94599657     0.11200
H2544       H  0.87314259  0.95136953  0.95886699     0.17000
C2545       C  0.46546917  0.74292174  0.76052338    -0.01200
C2546       C  0.45293996  0.71610144  0.77255403     0.07400
C2547       C  0.42364377  0.67317625  0.77043557    -0.07200
C2548       C  0.40534390  0.65737845  0.75693978     0.04800
C2549       C  0.41457384  0.68509484  0.74528353    -0.14400
C2550       C  0.44565479  0.72755983  0.74718141    -0.07700
C2551       C  0.46570751  0.73314265  0.78751074     0.05800
C2552       C  0.46131774  0.76734061  0.79155766    -0.08900
C2553       C  0.47110816  0.78398350  0.80539956     0.00700
C2554       C  0.48312055  0.76474790  0.81602576     0.00600
C2555       C  0.48707675  0.73016535  0.81218031    -0.12400
C2556       C  0.47962395  0.71501868  0.79797412     0.01100
C2557       C  0.46788507  0.82066361  0.80842416     0.40400
C2558       C  0.48776931  0.68185283  0.79433578     0.37000
C2559       C  0.49826850  0.78653308  0.76167314     0.36700
C2560       C  0.37494676  0.61303775  0.75571281     0.37500
N2561       N  0.46537956  0.85010808  0.81076948    -0.43300
N2562       N  0.49459046  0.65543823  0.79141552    -0.43800
N2563       N  0.35088923  0.57739268  0.75484576    -0.41100
N2564       N  0.52447571  0.82144225  0.76277397    -0.42500
H2565       H  0.45411328  0.74897049  0.73824498     0.13600
H2566       H  0.41337006  0.65210394  0.77949662     0.10100
H2567       H  0.44966478  0.78105039  0.78386713     0.11200
H2568       H  0.49648130  0.71536040  0.82023072     0.17000
C2569       C  0.55172137  0.02343452  0.84946721    -0.01200
C2570       C  0.57967603  0.01111780  0.85467739     0.07400
C2571       C  0.61834938  0.04160844  0.86055523    -0.07200
C2572       C  0.62978289  0.08423270  0.86103902     0.04800
C2573       C  0.60256230  0.09704542  0.85512817    -0.14400
C2574       C  0.56346500  0.06592887  0.84957279    -0.07700
C2575       C  0.56907020  0.96661477  0.85353268     0.05800
C2576       C  0.57856561  0.95310194  0.84084732    -0.08900
C2577       C  0.56218461  0.91018596  0.83803080     0.00700
C2578       C  0.53639747  0.87992376  0.84819843     0.00600
C2579       C  0.52915950  0.89382599  0.86129528    -0.12400
C2580       C  0.54492900  0.93674458  0.86396099     0.01100
C2581       C  0.56813156  0.89813889  0.82395242     0.40400
C2582       C  0.53345366  0.94928668  0.87697298     0.37000
C2583       C  0.51054031  0.99287142  0.84407860     0.36700
C2584       C  0.66975750  0.11374064  0.86749143     0.37500
N2585       N  0.57252232  0.88876041  0.81257084    -0.43300
N2586       N  0.52408937  0.95950865  0.88733126    -0.43800
N2587       N  0.70173043  0.13692067  0.87282156    -0.41100
N2588       N  0.47738740  0.96840228  0.83988060    -0.42500
H2589       H  0.54157199  0.07474379  0.84545363     0.13600
H2590       H  0.63968347  0.03206389  0.86472937     0.10100
H2591       H  0.59649741  0.97602162  0.83270532     0.11200
H2592       H  0.50901222  0.87090218  0.86910382     0.17000
C2593       C  0.59690928  0.80195253  0.86201818    -0.01200
C2594       C  0.62108276  0.79251989  0.85285839     0.07400
C2595       C  0.61485729  0.79280605  0.83798378    -0.07200
C2596       C  0.58442524  0.80120158  0.83227474     0.04800
C2597       C  0.55863035  0.80842339  0.84152795    -0.14400
C2598       C  0.56591522  0.80903874  0.85638847    -0.07700
C2599       C  0.65227969  0.78182521  0.85880817     0.05800
C2600       C  0.63870757  0.74825710  0.86849797    -0.08900
C2601       C  0.66723832  0.73883750  0.87508121     0.00700
C2602       C  0.71013148  0.76257146  0.87181182     0.00600
C2603       C  0.72374476  0.79585199  0.86207642    -0.12400
C2604       C  0.69544172  0.80576430  0.85564476     0.01100
C2605       C  0.65215328  0.70584257  0.88555083     0.40400
C2606       C  0.71174633  0.84148601  0.84622730     0.37000
C2607       C  0.60383636  0.80537564  0.87730649     0.36700
C2608       C  0.58142214  0.80335073  0.81696011     0.37500
N2609       N  0.63989581  0.67968476  0.89408497    -0.43300
N2610       N  0.72500416  0.87020424  0.83870637    -0.43800
N2611       N  0.57969086  0.80502351  0.80463322    -0.41100
N2612       N  0.60955744  0.80824898  0.88954598    -0.42500
H2613       H  0.54674740  0.81449165  0.86377037     0.13600
H2614       H  0.63368789  0.78622146  0.83080384     0.10100
H2615       H  0.60569738  0.72971771  0.87109281     0.11200
H2616       H  0.75675934  0.81401202  0.85946157     0.17000
C2617       C  0.03341787  0.29631890  0.67534917    -0.01200
C2618       C  0.02232328  0.32701488  0.67825765     0.07400
C2619       C  0.98199216  0.31863221  0.67419733    -0.07200
C2620       C  0.95483335  0.28255399  0.66610313     0.04800
C2621       C  0.96780576  0.25414390  0.66213354    -0.14400
C2622       C  0.00585101  0.26003363  0.66760893    -0.07700
C2623       C  0.05510619  0.37055867  0.68269531     0.05800
C2624       C  0.06504995  0.40353155  0.67311957    -0.08900
C2625       C  0.10087076  0.44320235  0.67521959     0.00700
C2626       C  0.12840727  0.45009662  0.68678931     0.00600
C2627       C  0.11668567  0.41843693  0.69705981    -0.12400
C2628       C  0.07992717  0.37905756  0.69521438     0.01100
C2629       C  0.10776002  0.47685771  0.66572318     0.40400
C2630       C  0.06834593  0.34771072  0.70618796     0.37000
C2631       C  0.07512630  0.30391430  0.67828462     0.36700
C2632       C  0.91605094  0.27769360  0.66057675     0.37500
N2633       N  0.11246931  0.50391515  0.65828681    -0.43300
N2634       N  0.05880401  0.32247809  0.71496382    -0.43800
N2635       N  0.88494424  0.27353519  0.65604386    -0.41100
N2636       N  0.10862286  0.31014968  0.68056190    -0.42500
H2637       H  0.01637257  0.23873261  0.66429079     0.13600
H2638       H  0.97314592  0.34197137  0.67632543     0.10100
H2639       H  0.04552770  0.39790003  0.66369669     0.11200
H2640       H  0.13677962  0.42408831  0.70631831     0.17000
C2641       C  0.90560783  0.07978777  0.62073344    -0.01200
C2642       C  0.88726850  0.07590541  0.60710271     0.07400
C2643       C  0.86915633  0.10038747  0.60384045    -0.07200
C2644       C  0.87425509  0.13240638  0.61316782     0.04800
C2645       C  0.89627762  0.13896670  0.62618877    -0.14400
C2646       C  0.90901051  0.11060259  0.63030529    -0.07700
C2647       C  0.89580648  0.05479919  0.59519225     0.05800
C2648       C  0.87336019  0.01089742  0.59386284    -0.08900
C2649       C  0.88268787  0.99074465  0.58297102     0.00700
C2650       C  0.91585407  0.01482258  0.57335335     0.00600
C2651       C  0.93787621  0.05892541  0.57475692    -0.12400
C2652       C  0.92791857  0.07887961  0.58542480     0.01100
C2653       C  0.85809515  0.94540881  0.58214488     0.40400
C2654       C  0.95129046  0.12430810  0.58626406     0.37000
C2655       C  0.92648929  0.05688133  0.62433902     0.36700
C2656       C  0.86097239  0.16114701  0.60849121     0.37500
N2657       N  0.83817625  0.90909720  0.58136913    -0.43300
N2658       N  0.96949316  0.16065715  0.58702677    -0.43800
N2659       N  0.85051886  0.18433169  0.60473862    -0.41100
N2660       N  0.94376376  0.03905419  0.62723927    -0.42500
H2661       H  0.92675848  0.11616793  0.64018266     0.13600
H2662       H  0.85516183  0.09756783  0.59335268     0.10100
H2663       H  0.84861123  0.99239186  0.60137024     0.11200
H2664       H  0.96278484  0.07811643  0.56738867     0.17000
C2665       C  0.48973361  0.87787412  0.68307674    -0.01200
C2666       C  0.53061307  0.88695342  0.68680686     0.07400
C2667       C  0.53734155  0.85387190  0.69034755    -0.07200
C2668       C  0.50388864  0.81219475  0.69041199     0.04800
C2669       C  0.46304462  0.80343238  0.68697936    -0.14400
C2670       C  0.45643844  0.83629715  0.68315431    -0.07700
C2671       C  0.56482686  0.93094782  0.68920417     0.05800
C2672       C  0.57669312  0.94438568  0.70336099    -0.08900
C2673       C  0.60068239  0.98713070  0.70669745     0.00700
C2674       C  0.61414495  0.01726157  0.69569383     0.00600
C2675       C  0.60526924  0.00369250  0.68139774    -0.12400
C2676       C  0.58092563  0.96064903  0.67807697     0.01100
C2677       C  0.60730594  0.99947548  0.72160222     0.40400
C2678       C  0.57087037  0.94756602  0.66331429     0.37000
C2679       C  0.48074237  0.91082739  0.67990093     0.36700
C2680       C  0.51170357  0.77932627  0.69486311     0.37500
N2681       N  0.61267698  0.00937853  0.73353040    -0.43300
N2682       N  0.56259987  0.93666246  0.65152301    -0.43800
N2683       N  0.51800323  0.75308403  0.69853764    -0.41100
N2684       N  0.47357375  0.93722972  0.67733031    -0.42500
H2685       H  0.42499323  0.82945772  0.68045621     0.13600
H2686       H  0.56850423  0.86082867  0.69352711     0.10100
H2687       H  0.56426177  0.92160755  0.71193473     0.11200
H2688       H  0.61486507  0.02673030  0.67293533     0.17000
C2689       C  0.68631190  0.13869837  0.75168177    -0.01200
C2690       C  0.68337610  0.17504952  0.75383326     0.07400
C2691       C  0.68092332  0.19660049  0.74185136    -0.07200
C2692       C  0.67663113  0.18003045  0.72805972     0.04800
C2693       C  0.67476132  0.14123731  0.72605032    -0.14400
C2694       C  0.68235148  0.12229845  0.73780610    -0.07700
C2695       C  0.67915971  0.18923637  0.76835237     0.05800
C2696       C  0.71185613  0.20243206  0.77847560    -0.08900
C2697       C  0.70876608  0.21658065  0.79212545     0.00700
C2698       C  0.67248889  0.21784445  0.79579521     0.00600
C2699       C  0.63974477  0.20432466  0.78569509    -0.12400
C2700       C  0.64263309  0.18997591  0.77215041     0.01100
C2701       C  0.74231415  0.22780783  0.80235167     0.40400
C2702       C  0.60697058  0.17490025  0.76254267     0.37000
C2703       C  0.68944415  0.11556736  0.76359392     0.36700
C2704       C  0.67112220  0.20172155  0.71616187     0.37500
N2705       N  0.76913270  0.23659988  0.81057259    -0.43300
N2706       N  0.57815905  0.16273784  0.75496172    -0.43800
N2707       N  0.66667476  0.21889325  0.70656585    -0.41100
N2708       N  0.69199382  0.09703295  0.77313911    -0.42500
H2709       H  0.68089839  0.09242843  0.73636640     0.13600
H2710       H  0.67991445  0.22521958  0.74336030     0.10100
H2711       H  0.73984578  0.20165751  0.77570173     0.11200
H2712       H  0.61162383  0.20499724  0.78840029     0.17000
C2713       C  0.80661524  0.14443857  0.65866996    -0.01200
C2714       C  0.81004784  0.13748229  0.67334388     0.07400
C2715       C  0.84824552  0.14286271  0.67858363    -0.07200
C2716       C  0.88349660  0.15830462  0.66970471     0.04800
C2717       C  0.88115298  0.16990404  0.65552214    -0.14400
C2718       C  0.84212753  0.16132743  0.65002548    -0.07700
C2719       C  0.77478059  0.12701776  0.68333635     0.05800
C2720       C  0.75643343  0.08941029  0.69112902    -0.08900
C2721       C  0.72106979  0.07767321  0.69968116     0.00700
C2722       C  0.70276612  0.10321710  0.70022343     0.00600
C2723       C  0.72293992  0.14207180  0.69313675    -0.12400
C2724       C  0.75891042  0.15439524  0.68501448     0.01100
C2725       C  0.70561934  0.04041912  0.70824520     0.40400
C2726       C  0.77927334  0.19550945  0.67853857     0.37000
C2727       C  0.76685731  0.13424992  0.65224006     0.36700
C2728       C  0.92100457  0.16013241  0.67509280     0.37500
N2729       N  0.69462013  0.01081192  0.71520782    -0.43300
N2730       N  0.79589129  0.22843320  0.67334373    -0.43800
N2731       N  0.95083641  0.16088262  0.67936333    -0.41100
N2732       N  0.73490891  0.12582179  0.64711194    -0.42500
H2733       H  0.83964392  0.16872759  0.63898304     0.13600
H2734       H  0.85075762  0.13578793  0.68966828     0.10100
H2735       H  0.76943214  0.06894439  0.69039059     0.11200
H2736       H  0.70975320  0.16240236  0.69361577     0.17000
loop_ 
_geom_bond_atom_site_label_1 
_geom_bond_atom_site_label_2 
_geom_bond_distance 
_geom_bond_site_symmetry_2 
_ccdc_geom_bond_type 
N1            C5   1.361       .  A
N1            C2   1.362       .  A
N1         C2722   1.450       .  S
C2            C3   1.381       .  A
C2         C2693   1.481       .  S
C3            C4   1.364       .  A
C3            H6   1.083       .  S
C4            C5   1.381       .  A
C4            H7   1.083       .  S
C5         C2674   1.473       .  S
N8           C12   1.361       .  A
N8            C9   1.358       .  A
N8         C2717   1.445       .  S
C9           C10   1.380       .  A
C9         C2645   1.473       .  S
C10          C11   1.367       .  A
C10          H13   1.083       .  S
C11          C12   1.381       .  A
C11          H14   1.083   1_655  S
C12        C2621   1.479       .  S
N15          C19   1.363       .  A
N15          C16   1.365       .  A
N15        C2597   1.457       .  S
C16          C17   1.387       .  A
C16        C2554   1.489       .  S
C17          C18   1.368       .  A
C17          H20   1.083       .  S
C18          C19   1.377       .  A
C18          H21   1.082       .  S
C19        C2578   1.488       .  S
N22          C26   1.360       .  A
N22          C23   1.364       .  A
N22        C2602   1.444       .  S
C23          C24   1.384       .  A
C23        C2525   1.494       .  S
C24          C25   1.366       .  A
C24          H27   1.082       .  S
C25          C26   1.379       .  A
C25          H28   1.083       .  S
C26        C2506   1.479       .  S
N29          C33   1.365       .  A
N29          C30   1.366       .  A
N29        C2477   1.456       .  S
C30          C31   1.382       .  A
C30        C2453   1.493       .  S
C31          C32   1.366       .  A
C31          H34   1.082       .  S
C32          C33   1.380       .  A
C32          H35   1.083       .  S
C33        C2434   1.483       .  S
N36          C40   1.356       .  A
N36          C37   1.358       .  A
N36        C2482   1.438       .  S
C37          C38   1.382       .  A
C37        C2386   1.480       .  S
C38          C39   1.371       .  A
C38          H41   1.083       .  S
C39          C40   1.380       .  A
C39          H42   1.082       .  S
C40        C2405   1.476       .  S
N43          C47   1.356   1_556  A
N43          C44   1.354       .  A
N43        C2357   1.440   1_556  S
C44          C45   1.381       .  A
C44        C2309   1.477       .  S
C45          C46   1.371       .  A
C45          H48   1.082       .  S
C46          C47   1.383   1_556  A
C46          H49   1.082       .  S
C47        C2333   1.479       .  S
N50          C54   1.365       .  A
N50          C51   1.364       .  A
N50        C2362   1.455       .  S
C51          C52   1.380       .  A
C51        C2290   1.490       .  S
C52          C53   1.365       .  A
C52          H55   1.082       .  S
C53          C54   1.382       .  A
C53          H56   1.083       .  S
C54        C2261   1.477       .  S
N57          C61   1.361   1_455  A
N57          C58   1.362       .  A
N57        C2237   1.447       .  S
C58          C59   1.381   1_455  A
C58        C2194   1.482       .  S
C59          C60   1.366       .  A
C59          H62   1.083       .  S
C60          C61   1.380       .  A
C60          H63   1.082       .  S
C61        C2218   1.484       .  S
N64          C68   1.362       .  A
N64          C65   1.364       .  A
N64        C2242   1.451       .  S
C65          C66   1.384       .  A
C65        C2165   1.496       .  S
C66          C67   1.369       .  A
C66          H69   1.082       .  S
C67          C68   1.380       .  A
C67          H70   1.083       .  S
C68        C2141   1.483       .  S
N71          C75   1.358       .  A
N71          C72   1.360       .  A
N71        C2122   1.447       .  S
C72          C73   1.383       .  A
C72        C2069   1.482       .  S
C73          C74   1.370       .  A
C73          H76   1.083       .  S
C74          C75   1.381       .  A
C74          H77   1.082       .  S
C75        C2093   1.481       .  S
N78          C82   1.363       .  A
N78          C79   1.360       .  A
N78        C2117   1.451       .  S
C79          C80   1.381       .  A
C79        C2021   1.482       .  S
C80          C81   1.366       .  A
C80          H83   1.082       .  S
C81          C82   1.382       .  A
C81          H84   1.083       .  S
C82        C2045   1.479   1_545  S
N85          C89   1.361       .  A
N85          C86   1.364       .  A
N85        C1997   1.452       .  S
C86          C87   1.385       .  A
C86        C1978   1.485       .  S
C87          C88   1.368       .  A
C87          H90   1.083       .  S
C88          C89   1.379       .  A
C88          H91   1.082       .  S
C89        C1954   1.486       .  S
N92          C96   1.365       .  A
N92          C93   1.367       .  A
N92        C2002   1.452       .  S
C93          C94   1.381       .  A
C93        C1930   1.490       .  S
C94          C95   1.366       .  A
C94          H97   1.083       .  S
C95          C96   1.380       .  A
C95          H98   1.083   1_565  S
C96        C1901   1.480       .  S
N99         C103   1.363       .  A
N99         C100   1.366       .  A
N99        C1877   1.450       .  S
C100        C101   1.384       .  A
C100       C1853   1.491       .  S
C101        C102   1.366       .  A
C101        H104   1.082       .  S
C102        C103   1.378       .  A
C102        H105   1.083       .  S
C103       C1834   1.481       .  S
N106        C110   1.360       .  A
N106        C107   1.360       .  A
N106       C1882   1.444       .  S
C107        C108   1.382       .  A
C107       C1786   1.484       .  S
C108        C109   1.369       .  A
C108        H111   1.083       .  S
C109        C110   1.382       .  A
C109        H112   1.082       .  S
C110       C1805   1.486       .  S
N113        C117   1.366       .  A
N113        C114   1.369       .  A
N113       C1757   1.458       .  S
C114        C115   1.383       .  A
C114       C1733   1.495       .  S
C115        C116   1.365       .  A
C115        H118   1.082       .  S
C116        C117   1.379       .  A
C116        H119   1.083       .  S
C117       C1709   1.485       .  S
N120        C124   1.360       .  A
N120        C121   1.366       .  A
N120       C1762   1.447       .  S
C121        C122   1.383       .  A
C121       C1661   1.487       .  S
C122        C123   1.369       .  A
C122        H125   1.083       .  S
C123        C124   1.379       .  A
C123        H126   1.083       .  S
C124       C1685   1.481       .  S
N127        C131   1.365       .  A
N127        C128   1.368       .  A
N127       C1642   1.457   1_556  S
C128        C129   1.382       .  A
C128       C1589   1.478       .  S
C129        C130   1.362       .  A
C129        H132   1.083       .  S
C130        C131   1.379       .  A
C130        H133   1.083       .  S
C131       C1618   1.480   1_556  S
N134        C138   1.363       .  A
N134        C135   1.364       .  A
N134       C1637   1.446       .  S
C135        C136   1.382       .  A
C135       C1565   1.483       .  S
C136        C137   1.364       .  A
C136        H139   1.083       .  S
C137        C138   1.380       .  A
C137        H140   1.083       .  S
C138       C1541   1.483       .  S
N141        C145   1.367       .  A
N141        C142   1.364       .  A
N141       C1522   1.451       .  S
C142        C143   1.380       .  A
C142       C1474   1.489       .  S
C143        C144   1.366       .  A
C143        H146   1.083       .  S
C144        C145   1.382       .  A
C144        H147   1.083       .  S
C145       C1493   1.487       .  S
N148        C152   1.362       .  A
N148        C149   1.365       .  A
N148       C1517   1.453       .  S
C149        C150   1.383       .  A
C149       C1445   1.488       .  S
C150        C151   1.367       .  A
C150        H153   1.083       .  S
C151        C152   1.381       .  A
C151        H154   1.082       .  S
C152       C1421   1.487       .  S
N155        C159   1.362       .  A
N155        C156   1.361       .  A
N155       C1397   1.447       .  S
C156        C157   1.380       .  A
C156       C1349   1.479       .  S
C157        C158   1.368       .  A
C157        H160   1.083       .  S
C158        C159   1.381       .  A
C158        H161   1.083       .  S
C159       C1373   1.483       .  S
N162        C166   1.360       .  A
N162        C163   1.360       .  A
N162       C1402   1.449   1_565  S
C163        C164   1.382       .  A
C163       C1306   1.483       .  S
C164        C165   1.367       .  A
C164        H167   1.082       .  S
C165        C166   1.381       .  A
C165        H168   1.083       .  S
C166       C1330   1.476       .  S
N169        C173   1.361       .  A
N169        C170   1.366       .  A
N169       C1277   1.449       .  S
C170        C171   1.384       .  A
C170       C1253   1.493       .  S
C171        C172   1.368       .  A
C171        H174   1.082       .  S
C172        C173   1.379       .  A
C172        H175   1.082       .  S
C173       C1229   1.482       .  S
N176        C180   1.363       .  A
N176        C177   1.361       .  A
N176       C1282   1.446       .  S
C177        C178   1.380       .  A
C177       C1205   1.482       .  S
C178        C179   1.370       .  A
C178        H181   1.083       .  S
C179        C180   1.383       .  A
C179        H182   1.082   1_565  S
C180       C1186   1.488       .  S
N183        C187   1.365       .  A
N183        C184   1.365       .  A
N183       C1162   1.452       .  S
C184        C185   1.379       .  A
C184       C1133   1.480       .  S
C185        C186   1.364       .  A
C185        H188   1.083       .  S
C186        C187   1.381       .  A
C186        H189   1.083       .  S
C187       C1114   1.484       .  S
N190        C194   1.359       .  A
N190        C191   1.360       .  A
N190       C1157   1.443   1_565  S
C191        C192   1.383       .  A
C191       C1085   1.486       .  S
C192        C193   1.371       .  A
C192        H195   1.082       .  S
C193        C194   1.381       .  A
C193        H196   1.082       .  S
C194       C1061   1.484       .  S
N197        C201   1.359       .  A
N197        C198   1.362       .  A
N197       C1042   1.448       .  S
C198        C199   1.381       .  A
C198        C989   1.475   1_565  S
C199        C200   1.365       .  A
C199        H202   1.083       .  S
C200        C201   1.380       .  A
C200        H203   1.083       .  S
C201       C1018   1.475       .  S
N204        C208   1.359       .  A
N204        C205   1.362       .  A
N204       C1037   1.451       .  S
C205        C206   1.385       .  A
C205        C946   1.485       .  S
C206        C207   1.365       .  A
C206        H209   1.082       .  S
C207        C208   1.379       .  A
C207        H210   1.083       .  S
C208        C965   1.473       .  S
N211        C215   1.366       .  A
N211        C212   1.369       .  A
N211        C922   1.456       .  S
C212        C213   1.383       .  A
C212        C874   1.488       .  S
C213        C214   1.361       .  A
C213        H216   1.083       .  S
C214        C215   1.378       .  A
C214        H217   1.083       .  S
C215        C893   1.480       .  S
N218        C222   1.363       .  A
N218        C219   1.363       .  A
N218        C917   1.445       .  S
C219        C220   1.381       .  A
C219        C845   1.490       .  S
C220        C221   1.370   1_655  A
C220        H223   1.083   1_655  S
C221        C222   1.382   1_455  A
C221        H224   1.082       .  S
C222        C821   1.490       .  S
N225        C229   1.364       .  A
N225        C226   1.363       .  A
N225        C797   1.448       .  S
C226        C227   1.380       .  A
C226        C773   1.484       .  S
C227        C228   1.368       .  A
C227        H230   1.083       .  S
C228        C229   1.383       .  A
C228        H231   1.082       .  S
C229        C754   1.490       .  S
N232        C236   1.359   1_455  A
N232        C233   1.362       .  A
N232        C802   1.440   1_455  S
C233        C234   1.383       .  A
C233        C701   1.490       .  S
C234        C235   1.371   1_455  A
C234        H237   1.082       .  S
C235        C236   1.380       .  A
C235        H238   1.082       .  S
C236        C725   1.485       .  S
N239        C243   1.365       .  A
N239        C240   1.366       .  A
N239        C682   1.457       .  S
C240        C241   1.384       .  A
C240        C629   1.490       .  S
C241        C242   1.366       .  A
C241        H244   1.083       .  S
C242        C243   1.380       .  A
C242        H245   1.082       .  S
C243        C653   1.496       .  S
N246        C250   1.362       .  A
N246        C247   1.363       .  A
N246        C677   1.449   1_655  S
C247        C248   1.383       .  A
C247        C581   1.489   1_655  S
C248        C249   1.365       .  A
C248        H251   1.082       .  S
C249        C250   1.379       .  A
C249        H252   1.083       .  S
C250        C610   1.480       .  S
O253        C264   1.290       .  A
O253       Eu289   2.446       .  S
O254        C265   1.293       .  A
O254       Eu288   2.465       .  S
O255        C266   1.291       .  A
O255       Eu261   2.456       .  S
O256        C267   1.290       .  A
O256       Eu261   2.461       .  S
O257        C267   1.290       .  A
O257       Eu291   2.458       .  S
O258        C266   1.296       .  A
O258       Eu290   2.490       .  S
O259        C265   1.292       .  A
O259       Eu261   2.465       .  S
O260        C264   1.294       .  A
O260       Eu261   2.477       .  S
Eu261       O271   2.363       .  S
Eu261       O263   2.348       .  S
Eu261       O262   2.354       .  S
Eu261       O269   2.359       .  S
O262       Eu291   2.352       .  S
O262       Eu288   2.362       .  S
O263       Eu289   2.357       .  S
O263       Eu290   2.347       .  S
C264       C2698   1.483       .  S
C265       C1949   1.496       .  S
C266       C1781   1.496       .  S
C267        C605   1.472       .  S
H268        O269   0.965       .  S
O269       Eu290   2.348       .  S
O269       Eu288   2.363       .  S
H270        O271   0.966       .  S
O271       Eu289   2.364       .  S
O271       Eu291   2.361       .  S
O272        C295   1.295       .  A
O272       Eu288   2.483       .  S
O273        C296   1.292       .  A
O273       Eu289   2.469       .  S
O274        C297   1.291       .  A
O274       Eu290   2.462       .  S
O275        C298   1.293       .  A
O275       Eu291   2.468       .  S
O276        C299   1.291       .  A
O276       Eu291   2.464       .  S
O277        C300   1.291       .  A
O277       Eu290   2.456       .  S
O278        C301   1.293       .  A
O278       Eu292   2.474       .  S
O279        C302   1.295       .  A
O279       Eu292   2.476       .  S
O280        C301   1.293       .  A
O280       Eu290   2.460       .  S
O281        C302   1.291       .  A
O281       Eu291   2.458       .  S
O282        C297   1.294       .  A
O282       Eu288   2.471       .  S
O283        C300   1.293       .  A
O283       Eu289   2.468       .  S
O284        C299   1.295       .  A
O284       Eu289   2.473       .  S
O285        C298   1.293       .  A
O285       Eu288   2.473       .  S
O286        C295   1.289       .  A
O286       Eu292   2.446       .  S
O287        C296   1.292       .  A
O287       Eu292   2.455       .  S
Eu288       O306   2.354       .  S
Eu288       O294   2.350       .  S
Eu289       O293   2.349       .  S
Eu289       O304   2.351       .  S
Eu290       O304   2.363       .  S
Eu290       O294   2.359       .  S
Eu291       O293   2.359       .  S
Eu291       O306   2.362       .  S
Eu292       O293   2.349       .  S
Eu292       O304   2.350       .  S
Eu292       O306   2.359       .  S
Eu292       O294   2.356       .  S
C295       C2314   1.497       .  S
C296       C1906   1.498       .  S
C297       C2501   1.491       .  S
C298        C778   1.487       .  S
C299       C2573   1.494       .  S
C300       C1138   1.485       .  S
C301        C658   1.501       .  S
C302       C1594   1.492       .  S
H303        O304   0.966       .  S
H305        O306   0.966       .  S
O307        C318   1.294       .  A
O307       Eu343   2.473   1_556  S
O308        C319   1.296       .  A
O308       Eu342   2.482       .  S
O309        C320   1.295       .  A
O309       Eu315   2.480       .  S
O310        C321   1.294       .  A
O310       Eu315   2.477   1_546  S
O311        C321   1.294   1_455  A
O311       Eu345   2.470   1_546  S
O312        C320   1.293       .  A
O312       Eu344   2.471       .  S
O313        C319   1.291       .  A
O313       Eu315   2.461   1_545  S
O314        C318   1.294       .  A
O314       Eu315   2.476   1_556  S
Eu315       O325   2.359   1_554  S
Eu315       O317   2.361       .  S
Eu315       O316   2.362   1_565  S
Eu315       O323   2.363       .  S
O316       Eu345   2.358   1_645  S
O316       Eu342   2.352       .  S
O317       Eu343   2.368       .  S
O317       Eu344   2.367       .  S
C318       C2530   1.495       .  S
C319        C749   1.499       .  S
C320       C1546   1.502       .  S
C321        C586   1.501   1_655  S
H322        O323   0.966       .  S
O323       Eu344   2.360       .  S
O323       Eu342   2.354   1_565  S
H324        O325   0.968       .  S
O325       Eu343   2.350   1_556  S
O325       Eu345   2.354   1_656  S
O326        C349   1.292   1_545  A
O326       Eu342   2.462   1_455  S
O327        C350   1.294       .  A
O327       Eu343   2.480       .  S
O328        C351   1.292       .  A
O328       Eu344   2.463       .  S
O329        C352   1.293       .  A
O329       Eu345   2.470   1_545  S
O330        C353   1.292       .  A
O330       Eu345   2.463   1_556  S
O331        C354   1.291       .  A
O331       Eu344   2.457       .  S
O332        C355   1.294       .  A
O332       Eu346   2.469   1_655  S
O333        C356   1.290       .  A
O333       Eu346   2.448       .  S
O334        C355   1.295       .  A
O334       Eu344   2.485       .  S
O335        C356   1.292       .  A
O335       Eu345   2.463       .  S
O336        C351   1.290   1_545  A
O336       Eu342   2.453       .  S
O337        C354   1.291       .  A
O337       Eu343   2.448       .  S
O338        C353   1.297   1_655  A
O338       Eu343   2.491   1_556  S
O339        C352   1.289       .  A
O339       Eu342   2.453   1_455  S
O340        C349   1.294       .  A
O340       Eu346   2.476       .  S
O341        C350   1.295       .  A
O341       Eu346   2.471   1_655  S
Eu342       O360   2.360   1_645  S
Eu342       O348   2.349   1_545  S
Eu343       O347   2.349   1_655  S
Eu343       O358   2.365       .  S
Eu344       O358   2.355       .  S
Eu344       O348   2.344       .  S
Eu345       O347   2.358       .  S
Eu345       O360   2.358       .  S
Eu346       O347   2.359       .  S
Eu346       O358   2.349   1_455  S
Eu346       O360   2.365       .  S
Eu346       O348   2.344   1_455  S
C349       C2074   1.487   1_565  S
C350        C730   1.509       .  S
C351       C1301   1.485       .  S
C352       C2266   1.498       .  S
C353       C1925   1.497       .  S
C354       C2338   1.491       .  S
C355        C850   1.505       .  S
C356       C1613   1.490       .  S
H357        O358   0.967       .  S
H359        O360   0.965   1_545  S
O361        C372   1.293       .  A
O361       Eu397   2.468       .  S
O362        C373   1.295       .  A
O362       Eu396   2.482       .  S
O363        C374   1.294       .  A
O363       Eu369   2.472       .  S
O364        C375   1.294       .  A
O364       Eu369   2.479       .  S
O365        C375   1.292       .  A
O365       Eu399   2.460       .  S
O366        C374   1.290       .  A
O366       Eu398   2.449       .  S
O367        C373   1.291       .  A
O367       Eu369   2.461       .  S
O368        C372   1.291       .  A
O368       Eu369   2.456       .  S
Eu369       O379   2.356       .  S
Eu369       O371   2.356       .  S
Eu369       O370   2.354       .  S
Eu369       O377   2.352       .  S
O370       Eu399   2.355       .  S
O370       Eu396   2.352       .  S
O371       Eu397   2.346       .  S
O371       Eu398   2.349       .  S
C372       C2458   1.489       .  S
C373       C1181   1.501       .  S
C374        C994   1.488       .  S
C375       C1426   1.495       .  S
H376        O377   0.965       .  S
O377       Eu398   2.366       .  S
O377       Eu396   2.349       .  S
H378        O379   0.966       .  S
O379       Eu397   2.355       .  S
O379       Eu399   2.361       .  S
O380        C403   1.290       .  A
O380       Eu396   2.452       .  S
O381        C404   1.290       .  A
O381       Eu397   2.460       .  S
O382        C405   1.290       .  A
O382       Eu398   2.459       .  S
O383        C406   1.294       .  A
O383       Eu399   2.469       .  S
O384        C407   1.294       .  A
O384       Eu399   2.472       .  S
O385        C408   1.294       .  A
O385       Eu398   2.476       .  S
O386        C409   1.297       .  A
O386       Eu400   2.493       .  S
O387        C410   1.296       .  A
O387       Eu400   2.484       .  S
O388        C409   1.290       .  A
O388       Eu398   2.456       .  S
O389        C410   1.293       .  A
O389       Eu399   2.466       .  S
O390        C405   1.294       .  A
O390       Eu396   2.475       .  S
O391        C408   1.293       .  A
O391       Eu397   2.471       .  S
O392        C407   1.289       .  A
O392       Eu397   2.449       .  S
O393        C406   1.293       .  A
O393       Eu396   2.469       .  S
O394        C403   1.295       .  A
O394       Eu400   2.478       .  S
O395        C404   1.294       .  A
O395       Eu400   2.473       .  S
Eu396       O414   2.364       .  S
Eu396       O402   2.364       .  S
Eu397       O401   2.358       .  S
Eu397       O412   2.362       .  S
Eu398       O412   2.352       .  S
Eu398       O402   2.354       .  S
Eu399       O401   2.353       .  S
Eu399       O414   2.358       .  S
Eu400       O401   2.360       .  S
Eu400       O412   2.365       .  S
Eu400       O414   2.365       .  S
Eu400       O402   2.361       .  S
C403       C2026   1.496       .  S
C404       C1234   1.478       .  S
C405       C2146   1.478       .  S
C406       C1354   1.494       .  S
C407       C2213   1.494       .  S
C408       C1738   1.500       .  S
C409       C1498   1.506       .  S
C410        C869   1.499       .  S
H411        O412   0.966       .  S
H413        O414   0.967       .  S
O415        C426   1.289       .  A
O415       Eu451   2.454       .  S
O416        C427   1.294       .  A
O416       Eu450   2.478       .  S
O417        C428   1.296       .  A
O417       Eu423   2.488       .  S
O418        C429   1.296       .  A
O418       Eu423   2.485       .  S
O419        C429   1.292       .  A
O419       Eu453   2.467       .  S
O420        C428   1.293       .  A
O420       Eu452   2.465       .  S
O421        C427   1.290       .  A
O421       Eu423   2.455       .  S
O422        C426   1.290       .  A
O422       Eu423   2.455       .  S
Eu423       O433   2.362       .  S
Eu423       O425   2.358       .  S
Eu423       O424   2.361       .  S
Eu423       O431   2.359       .  S
O424       Eu453   2.360       .  S
O424       Eu450   2.356       .  S
O425       Eu451   2.359       .  S
O425       Eu452   2.359       .  S
C426       C2669   1.468       .  S
C427       C1973   1.478       .  S
C428       C1066   1.495       .  S
C429       C2549   1.493       .  S
H430        O431   0.966       .  S
O431       Eu452   2.359       .  S
O431       Eu450   2.350       .  S
H432        O433   0.966       .  S
O433       Eu451   2.356       .  S
O433       Eu453   2.362       .  S
O434        C457   1.291       .  A
O434       Eu450   2.467       .  S
O435        C458   1.293       .  A
O435       Eu451   2.461       .  S
O436        C459   1.293       .  A
O436       Eu452   2.469       .  S
O437        C460   1.293       .  A
O437       Eu453   2.469       .  S
O438        C461   1.294       .  A
O438       Eu453   2.480       .  S
O439        C462   1.293       .  A
O439       Eu452   2.464       .  S
O440        C463   1.290       .  A
O440       Eu454   2.452       .  S
O441        C464   1.292       .  A
O441       Eu454   2.461       .  S
O442        C463   1.295       .  A
O442       Eu452   2.481       .  S
O443        C464   1.293       .  A
O443       Eu453   2.462       .  S
O444        C459   1.292       .  A
O444       Eu450   2.461       .  S
O445        C462   1.290       .  A
O445       Eu451   2.453       .  S
O446        C461   1.292       .  A
O446       Eu451   2.460       .  S
O447        C460   1.293       .  A
O447       Eu450   2.473       .  S
O448        C457   1.294       .  A
O448       Eu454   2.476       .  S
O449        C458   1.295       .  A
O449       Eu454   2.485       .  S
Eu450       O468   2.361       .  S
Eu450       O456   2.359       .  S
Eu451       O455   2.349       .  S
Eu451       O466   2.353       .  S
Eu452       O466   2.357       .  S
Eu452       O456   2.351       .  S
Eu453       O455   2.352       .  S
Eu453       O468   2.363       .  S
Eu454       O455   2.354       .  S
Eu454       O466   2.352       .  S
Eu454       O468   2.362       .  S
Eu454       O456   2.353       .  S
C457       C2626   1.482       .  S
C458       C1666   1.500       .  S
C459       C1810   1.493       .  S
C460        C634   1.486       .  S
C461       C1829   1.501       .  S
C462        C941   1.486       .  S
C463       C2381   1.498       .  S
C464       C1109   1.491       .  S
H465        O466   0.966       .  S
H467        O468   0.966       .  S
O469        C480   1.296       .  A
O469       Eu505   2.487       .  S
O470        C481   1.291       .  A
O470       Eu504   2.467       .  S
O471        C482   1.294       .  A
O471       Eu477   2.473       .  S
O472        C483   1.293       .  A
O472       Eu477   2.472       .  S
O473        C483   1.295       .  A
O473       Eu507   2.476       .  S
O474        C482   1.291       .  A
O474       Eu506   2.456       .  S
O475        C481   1.288       .  A
O475       Eu477   2.445       .  S
O476        C480   1.289       .  A
O476       Eu477   2.443       .  S
Eu477       O487   2.357       .  S
Eu477       O479   2.357       .  S
Eu477       O478   2.355       .  S
Eu477       O485   2.354       .  S
O478       Eu507   2.363       .  S
O478       Eu504   2.356       .  S
O479       Eu505   2.347       .  S
O479       Eu506   2.355       .  S
C480       C2285   1.497       .  S
C481       C1325   1.469       .  S
C482       C1570   1.489       .  S
C483        C898   1.497       .  S
H484        O485   0.965       .  S
O485       Eu506   2.366       .  S
O485       Eu504   2.354       .  S
H486        O487   0.966       .  S
O487       Eu505   2.361       .  S
O487       Eu507   2.365       .  S
O488        C511   1.291       .  A
O488       Eu504   2.455       .  S
O489        C512   1.295       .  A
O489       Eu505   2.478       .  S
O490        C513   1.292       .  A
O490       Eu506   2.464       .  S
O491        C514   1.296       .  A
O491       Eu507   2.484       .  S
O492        C515   1.296       .  A
O492       Eu507   2.482       .  S
O493        C516   1.295       .  A
O493       Eu506   2.481       .  S
O494        C517   1.294       .  A
O494       Eu508   2.474       .  S
O495        C518   1.292       .  A
O495       Eu508   2.463       .  S
O496        C517   1.293       .  A
O496       Eu506   2.470       .  S
O497        C518   1.296       .  A
O497       Eu507   2.486       .  S
O498        C513   1.292       .  A
O498       Eu504   2.463       .  S
O499        C516   1.294       .  A
O499       Eu505   2.475       .  S
O500        C515   1.289       .  A
O500       Eu505   2.447       .  S
O501        C514   1.293       .  A
O501       Eu504   2.466       .  S
O502        C511   1.294       .  A
O502       Eu508   2.479       .  S
O503        C512   1.291       .  A
O503       Eu508   2.454       .  S
Eu504       O522   2.353       .  S
Eu504       O510   2.360       .  S
Eu505       O509   2.363       .  S
Eu505       O520   2.358       .  S
Eu506       O520   2.348       .  S
Eu506       O510   2.361       .  S
Eu507       O509   2.360       .  S
Eu507       O522   2.355       .  S
Eu508       O509   2.360       .  S
Eu508       O520   2.360       .  S
Eu508       O522   2.349       .  S
Eu508       O510   2.353       .  S
C511       C2170   1.499       .  S
C512       C1378   1.494       .  S
C513       C2050   1.488       .  S
C514       C1258   1.497       .  S
C515       C2098   1.498       .  S
C516        C706   1.504       .  S
C517        C826   1.497       .  S
C518       C1450   1.504       .  S
H519        O520   0.966       .  S
H521        O522   0.966       .  S
O523        C534   1.294   1_545  A
O523       Eu559   2.468   1_655  S
O524        C535   1.294       .  A
O524       Eu558   2.476       .  S
O525        C536   1.291       .  A
O525       Eu531   2.461       .  S
O526        C537   1.296       .  A
O526       Eu531   2.484       .  S
O527        C537   1.294       .  A
O527       Eu561   2.478       .  S
O528        C536   1.293       .  A
O528       Eu560   2.462       .  S
O529        C535   1.290       .  A
O529       Eu531   2.455       .  S
O530        C534   1.290       .  A
O530       Eu531   2.456       .  S
Eu531       O541   2.355       .  S
Eu531       O533   2.356       .  S
Eu531       O532   2.345       .  S
Eu531       O539   2.360       .  S
O532       Eu561   2.352       .  S
O532       Eu558   2.351       .  S
O533       Eu559   2.347   1_665  S
O533       Eu560   2.349       .  S
C534       C2650   1.494   1_565  S
C535       C1690   1.498       .  S
C536       C1013   1.493       .  S
C537       C1858   1.502       .  S
H538        O539   0.966       .  S
O539       Eu560   2.366       .  S
O539       Eu558   2.352       .  S
H540        O541   0.966       .  S
O541       Eu559   2.364   1_665  S
O541       Eu561   2.360       .  S
O542        C565   1.290       .  A
O542       Eu558   2.452       .  S
O543        C566   1.293       .  A
O543       Eu559   2.473       .  S
O544        C567   1.290       .  A
O544       Eu560   2.447       .  S
O545        C568   1.293       .  A
O545       Eu561   2.474       .  S
O546        C569   1.294       .  A
O546       Eu561   2.474   1_455  S
O547        C570   1.290       .  A
O547       Eu560   2.458   1_545  S
O548        C571   1.294       .  A
O548       Eu562   2.474   1_545  S
O549        C572   1.289       .  A
O549       Eu562   2.453       .  S
O550        C571   1.293   1_655  A
O550       Eu560   2.474   1_545  S
O551        C572   1.294       .  A
O551       Eu561   2.465   1_455  S
O552        C567   1.293       .  A
O552       Eu558   2.473       .  S
O553        C570   1.293       .  A
O553       Eu559   2.463   1_655  S
O554        C569   1.292   1_545  A
O554       Eu559   2.462       .  S
O555        C568   1.293       .  A
O555       Eu558   2.463       .  S
O556        C565   1.296   1_455  A
O556       Eu562   2.484       .  S
O557        C566   1.293       .  A
O557       Eu562   2.464   1_545  S
Eu558       O576   2.364       .  S
Eu558       O564   2.355       .  S
Eu559       O563   2.352   1_545  S
Eu559       O574   2.360       .  S
Eu560       O574   2.355   1_665  S
Eu560       O564   2.349       .  S
Eu561       O563   2.352   1_655  S
Eu561       O576   2.367       .  S
Eu562       O563   2.358       .  S
Eu562       O574   2.361   1_565  S
Eu562       O576   2.365   1_455  S
Eu562       O564   2.345   1_455  S
C565       C2189   1.501   1_655  S
C566       C1714   1.499       .  S
C567       C1210   1.486       .  S
C568       C2429   1.492       .  S
C569       C1090   1.502       .  S
C570       C2410   1.490       .  S
C571       C1469   1.499       .  S
C572        C970   1.497       .  S
H573        O574   0.965       .  S
H575        O576   0.966   1_455  S
C577        C578   1.418       .  A
C577        C582   1.407       .  A
C577        C591   1.443       .  S
C578        C579   1.407       .  A
C578        C583   1.504       .  S
C579        C580   1.401       .  A
C579        H598   1.084       .  S
C580        C581   1.412       .  A
C580        C592   1.445       .  S
C581        C582   1.404       .  A
C582        H597   1.084       .  S
C583        C584   1.407   1_455  A
C583        C588   1.414       .  A
C584        C585   1.406       .  A
C584        H599   1.084       .  S
C585        C586   1.418   1_655  A
C585        C589   1.444       .  S
C586        C587   1.409       .  A
C587        C588   1.404       .  A
C587        H600   1.084       .  S
C588        C590   1.444       .  S
C589        N593   1.157       .  T
C590        N594   1.157       .  T
C591        N596   1.157       .  T
C592        N595   1.157       .  T
C601        C602   1.413       .  A
C601        C606   1.403       .  A
C601        C615   1.443       .  S
C602        C603   1.407       .  A
C602        C607   1.492       .  S
C603        C604   1.402       .  A
C603        H622   1.084       .  S
C604        C605   1.408       .  A
C604        C616   1.445       .  S
C605        C606   1.402       .  A
C606        H621   1.085       .  S
C607        C608   1.404       .  A
C607        C612   1.413       .  A
C608        C609   1.401       .  A
C608        H623   1.085       .  S
C609        C610   1.414       .  A
C609        C613   1.446       .  S
C610        C611   1.402       .  A
C611        C612   1.405       .  A
C611        H624   1.085       .  S
C612        C614   1.443       .  S
C613        N617   1.157       .  T
C614        N618   1.157       .  T
C615        N620   1.157       .  T
C616        N619   1.157       .  T
C625        C626   1.422       .  A
C625        C630   1.410       .  A
C625        C639   1.443       .  S
C626        C627   1.406       .  A
C626        C631   1.510       .  S
C627        C628   1.400       .  A
C627        H646   1.084       .  S
C628        C629   1.415       .  A
C628        C640   1.445       .  S
C629        C630   1.402       .  A
C630        H645   1.084       .  S
C631        C632   1.409       .  A
C631        C636   1.420       .  A
C632        C633   1.403       .  A
C632        H647   1.083       .  S
C633        C634   1.409       .  A
C633        C637   1.441       .  S
C634        C635   1.403       .  A
C635        C636   1.406       .  A
C635        H648   1.085       .  S
C636        C638   1.444       .  S
C637        N641   1.156       .  T
C638        N642   1.157       .  T
C639        N644   1.157       .  T
C640        N643   1.157       .  T
C649        C650   1.413       .  A
C649        C654   1.403       .  A
C649        C663   1.444       .  S
C650        C651   1.404       .  A
C650        C655   1.498       .  S
C651        C652   1.405       .  A
C651        H670   1.085       .  S
C652        C653   1.416       .  A
C652        C664   1.441       .  S
C653        C654   1.408       .  A
C654        H669   1.085       .  S
C655        C656   1.404       .  A
C655        C660   1.414       .  A
C656        C657   1.405       .  A
C656        H671   1.085       .  S
C657        C658   1.420       .  A
C657        C661   1.444       .  S
C658        C659   1.409       .  A
C659        C660   1.402       .  A
C659        H672   1.084       .  S
C660        C662   1.445       .  S
C661        N665   1.157       .  T
C662        N666   1.157       .  T
C663        N668   1.157       .  T
C664        N667   1.157       .  T
C673        C674   1.413       .  A
C673        C678   1.403       .  A
C673        C687   1.444       .  S
C674        C675   1.411       .  A
C674        C679   1.504       .  S
C675        C676   1.410       .  A
C675        H694   1.084       .  S
C676        C677   1.409       .  A
C676        C688   1.440       .  S
C677        C678   1.407       .  A
C678        H693   1.084       .  S
C679        C680   1.409       .  A
C679        C684   1.412       .  A
C680        C681   1.410       .  A
C680        H695   1.084       .  S
C681        C682   1.413       .  A
C681        C685   1.440       .  S
C682        C683   1.412       .  A
C683        C684   1.404       .  A
C683        H696   1.084       .  S
C684        C686   1.445       .  S
C685        N689   1.157       .  T
C686        N690   1.157       .  T
C687        N692   1.157       .  T
C688        N691   1.157       .  T
C697        C698   1.417       .  A
C697        C702   1.408       .  A
C697        C711   1.443       .  S
C698        C699   1.405       .  A
C698        C703   1.502       .  S
C699        C700   1.405       .  A
C699        H718   1.084       .  S
C700        C701   1.414       .  A
C700        C712   1.444   1_455  S
C701        C702   1.403       .  A
C702        H717   1.085       .  S
C703        C704   1.405       .  A
C703        C708   1.413       .  A
C704        C705   1.403       .  A
C704        H719   1.085       .  S
C705        C706   1.419       .  A
C705        C709   1.444       .  S
C706        C707   1.412       .  A
C707        C708   1.409       .  A
C707        H720   1.084       .  S
C708        C710   1.443       .  S
C709        N713   1.157       .  T
C710        N714   1.157       .  T
C711        N716   1.157       .  T
C712        N715   1.157       .  T
C721        C722   1.412   1_455  A
C721        C726   1.406       .  A
C721        C735   1.443       .  S
C722        C723   1.403       .  A
C722        C727   1.492       .  S
C723        C724   1.403       .  A
C723        H742   1.085       .  S
C724        C725   1.411       .  A
C724        C736   1.443       .  S
C725        C726   1.404   1_655  A
C726        H741   1.084       .  S
C727        C728   1.402       .  A
C727        C732   1.410       .  A
C728        C729   1.411       .  A
C728        H743   1.085       .  S
C729        C730   1.425       .  A
C729        C733   1.443       .  S
C730        C731   1.411       .  A
C731        C732   1.400       .  A
C731        H744   1.084   1_655  S
C732        C734   1.446   1_655  S
C733        N737   1.158   1_554  T
C734        N738   1.157       .  T
C735        N740   1.157       .  T
C736        N739   1.157       .  T
C745        C746   1.411       .  A
C745        C750   1.404       .  A
C745        C759   1.443   1_655  S
C746        C747   1.404       .  A
C746        C751   1.494       .  S
C747        C748   1.404       .  A
C747        H766   1.085       .  S
C748        C749   1.420       .  A
C748        C760   1.445       .  S
C749        C750   1.408       .  A
C750        H765   1.082       .  S
C751        C752   1.402       .  A
C751        C756   1.414       .  A
C752        C753   1.399   1_554  A
C752        H767   1.085   1_655  S
C753        C754   1.414       .  A
C753        C757   1.444   1_655  S
C754        C755   1.405   1_556  A
C755        C756   1.408       .  A
C755        H768   1.085       .  S
C756        C758   1.443       .  S
C757        N761   1.157       .  T
C758        N762   1.157       .  T
C759        N764   1.157       .  T
C760        N763   1.158       .  T
C769        C770   1.413       .  A
C769        C774   1.405       .  A
C769        C783   1.443       .  S
C770        C771   1.407       .  A
C770        C775   1.499       .  S
C771        C772   1.405       .  A
C771        H790   1.084       .  S
C772        C773   1.410       .  A
C772        C784   1.443       .  S
C773        C774   1.405       .  A
C774        H789   1.085       .  S
C775        C776   1.407       .  A
C775        C780   1.416       .  A
C776        C777   1.408       .  A
C776        H791   1.084       .  S
C777        C778   1.413       .  A
C777        C781   1.444       .  S
C778        C779   1.403       .  A
C779        C780   1.403       .  A
C779        H792   1.085       .  S
C780        C782   1.445       .  S
C781        N785   1.157       .  T
C782        N786   1.157       .  T
C783        N788   1.157       .  T
C784        N787   1.157       .  T
C793        C794   1.419       .  A
C793        C798   1.406   1_554  A
C793        C807   1.443       .  S
C794        C795   1.405       .  A
C794        C799   1.503       .  S
C795        C796   1.400   1_554  A
C795        H814   1.084   1_655  S
C796        C797   1.413       .  A
C796        C808   1.442   1_655  S
C797        C798   1.403       .  A
C798        H813   1.081       .  S
C799        C800   1.407       .  A
C799        C804   1.421   1_655  A
C800        C801   1.402       .  A
C800        H815   1.084       .  S
C801        C802   1.409       .  A
C801        C805   1.443       .  S
C802        C803   1.398   1_655  A
C803        C804   1.405       .  A
C803        H816   1.083       .  S
C804        C806   1.444       .  S
C805        N809   1.157       .  T
C806        N810   1.157       .  T
C807        N812   1.157       .  T
C808        N811   1.157       .  T
C817        C818   1.415       .  A
C817        C822   1.406   1_455  A
C817        C831   1.443   1_455  S
C818        C819   1.405       .  A
C818        C823   1.500       .  S
C819        C820   1.403       .  A
C819        H838   1.084       .  S
C820        C821   1.414   1_455  A
C820        C832   1.444       .  S
C821        C822   1.404       .  A
C822        H837   1.085       .  S
C823        C824   1.404       .  A
C823        C828   1.413       .  A
C824        C825   1.401       .  A
C824        H839   1.085       .  S
C825        C826   1.416       .  A
C825        C829   1.444       .  S
C826        C827   1.409       .  A
C827        C828   1.409       .  A
C827        H840   1.084       .  S
C828        C830   1.443       .  S
C829        N833   1.157       .  T
C830        N834   1.157       .  T
C831        N836   1.157       .  T
C832        N835   1.157       .  T
C841        C842   1.412       .  A
C841        C846   1.409       .  A
C841        C855   1.443       .  S
C842        C843   1.404       .  A
C842        C847   1.497       .  S
C843        C844   1.405       .  A
C843        H862   1.085       .  S
C844        C845   1.413       .  A
C844        C856   1.444       .  S
C845        C846   1.407       .  A
C846        H861   1.084       .  S
C847        C848   1.405       .  A
C847        C852   1.410       .  A
C848        C849   1.413       .  A
C848        H863   1.084       .  S
C849        C850   1.421       .  A
C849        C853   1.442       .  S
C850        C851   1.409       .  A
C851        C852   1.401       .  A
C851        H864   1.084       .  S
C852        C854   1.444       .  S
C853        N857   1.157       .  T
C854        N858   1.157   1_655  T
C855        N860   1.157       .  T
C856        N859   1.157       .  T
C865        C866   1.415       .  A
C865        C870   1.404       .  A
C865        C879   1.445       .  S
C866        C867   1.407       .  A
C866        C871   1.501       .  S
C867        C868   1.407       .  A
C867        H886   1.084       .  S
C868        C869   1.417       .  A
C868        C880   1.444       .  S
C869        C870   1.408       .  A
C870        H885   1.085       .  S
C871        C872   1.401       .  A
C871        C876   1.418       .  A
C872        C873   1.396       .  A
C872        H887   1.085       .  S
C873        C874   1.416       .  A
C873        C877   1.444       .  S
C874        C875   1.406       .  A
C875        C876   1.411       .  A
C875        H888   1.085       .  S
C876        C878   1.443       .  S
C877        N881   1.157       .  T
C878        N882   1.157       .  T
C879        N884   1.157       .  T
C880        N883   1.157       .  T
C889        C890   1.410       .  A
C889        C894   1.401       .  A
C889        C903   1.444       .  S
C890        C891   1.406       .  A
C890        C895   1.491       .  S
C891        C892   1.406       .  A
C891        H910   1.084       .  S
C892        C893   1.410       .  A
C892        C904   1.444       .  S
C893        C894   1.404       .  A
C894        H909   1.085       .  S
C895        C896   1.401       .  A
C895        C900   1.411       .  A
C896        C897   1.407       .  A
C896        H911   1.085       .  S
C897        C898   1.420       .  A
C897        C901   1.443       .  S
C898        C899   1.407       .  A
C899        C900   1.403       .  A
C899        H912   1.085       .  S
C900        C902   1.445       .  S
C901        N905   1.157       .  T
C902        N906   1.157       .  T
C903        N908   1.157       .  T
C904        N907   1.157       .  T
C913        C914   1.415       .  A
C913        C918   1.407       .  A
C913        C927   1.443       .  S
C914        C915   1.401       .  A
C914        C919   1.495       .  S
C915        C916   1.400       .  A
C915        H934   1.085       .  S
C916        C917   1.414       .  A
C916        C928   1.442       .  S
C917        C918   1.402       .  A
C918        H933   1.082       .  S
C919        C920   1.399       .  A
C919        C924   1.411       .  A
C920        C921   1.404       .  A
C920        H935   1.085       .  S
C921        C922   1.419       .  A
C921        C925   1.438       .  S
C922        C923   1.409       .  A
C923        C924   1.406       .  A
C923        H936   1.080       .  S
C924        C926   1.444       .  S
C925        N929   1.156       .  T
C926        N930   1.157       .  T
C927        N932   1.157       .  T
C928        N931   1.157       .  T
C937        C938   1.415       .  A
C937        C942   1.401       .  A
C937        C951   1.444       .  S
C938        C939   1.404       .  A
C938        C943   1.492       .  S
C939        C940   1.400       .  A
C939        H958   1.085       .  S
C940        C941   1.416       .  A
C940        C952   1.444       .  S
C941        C942   1.405       .  A
C942        H957   1.085       .  S
C943        C944   1.403       .  A
C943        C948   1.413       .  A
C944        C945   1.396       .  A
C944        H959   1.085       .  S
C945        C946   1.413       .  A
C945        C949   1.445       .  S
C946        C947   1.406       .  A
C947        C948   1.406       .  A
C947        H960   1.084       .  S
C948        C950   1.443       .  S
C949        N953   1.157       .  T
C950        N954   1.157       .  T
C951        N956   1.157       .  T
C952        N955   1.157       .  T
C961        C962   1.413       .  A
C961        C966   1.403       .  A
C961        C975   1.443   1_565  S
C962        C963   1.403       .  A
C962        C967   1.487       .  S
C963        C964   1.396       .  A
C963        H982   1.085       .  S
C964        C965   1.412       .  A
C964        C976   1.446       .  S
C965        C966   1.402       .  A
C966        H981   1.085   1_565  S
C967        C968   1.401       .  A
C967        C972   1.411       .  A
C968        C969   1.406       .  A
C968        H983   1.085       .  S
C969        C970   1.423       .  A
C969        C973   1.444       .  S
C970        C971   1.407       .  A
C971        C972   1.394       .  A
C971        H984   1.083       .  S
C972        C974   1.446       .  S
C973        N977   1.157       .  T
C974        N978   1.157       .  T
C975        N980   1.157       .  T
C976        N979   1.157       .  T
C985        C986   1.407       .  A
C985        C990   1.398       .  A
C985        C999   1.445       .  S
C986        C987   1.404       .  A
C986        C991   1.482       .  S
C987        C988   1.405       .  A
C987       H1006   1.084       .  S
C988        C989   1.410       .  A
C988       C1000   1.444   1_545  S
C989        C990   1.403       .  A
C990       H1005   1.083       .  S
C991        C992   1.401       .  A
C991        C996   1.406       .  A
C992        C993   1.399       .  A
C992       H1007   1.085       .  S
C993        C994   1.416       .  A
C993        C997   1.445       .  S
C994        C995   1.410       .  A
C995        C996   1.404       .  A
C995       H1008   1.085       .  S
C996        C998   1.443       .  S
C997       N1001   1.157       .  T
C998       N1002   1.157       .  T
C999       N1004   1.157       .  T
C1000      N1003   1.157       .  T
C1009      C1010   1.409       .  A
C1009      C1014   1.398       .  A
C1009      C1023   1.446       .  S
C1010      C1011   1.398       .  A
C1010      C1015   1.480       .  S
C1011      C1012   1.403       .  A
C1011      H1030   1.085       .  S
C1012      C1013   1.421       .  A
C1012      C1024   1.442       .  S
C1013      C1014   1.408       .  A
C1014      H1029   1.084       .  S
C1015      C1016   1.401       .  A
C1015      C1020   1.408       .  A
C1016      C1017   1.400       .  A
C1016      H1031   1.085       .  S
C1017      C1018   1.409       .  A
C1017      C1021   1.444       .  S
C1018      C1019   1.404       .  A
C1019      C1020   1.402       .  A
C1019      H1032   1.085   1_565  S
C1020      C1022   1.444   1_565  S
C1021      N1025   1.157       .  T
C1022      N1026   1.157       .  T
C1023      N1028   1.157       .  T
C1024      N1027   1.157       .  T
C1033      C1034   1.414       .  A
C1033      C1038   1.406       .  A
C1033      C1047   1.444       .  S
C1034      C1035   1.404       .  A
C1034      C1039   1.499       .  S
C1035      C1036   1.402       .  A
C1035      H1054   1.085       .  S
C1036      C1037   1.414       .  A
C1036      C1048   1.443       .  S
C1037      C1038   1.406       .  A
C1038      H1053   1.079       .  S
C1039      C1040   1.407       .  A
C1039      C1044   1.413       .  A
C1040      C1041   1.405   1_565  A
C1040      H1055   1.085   1_565  S
C1041      C1042   1.410   1_545  A
C1041      C1045   1.439       .  S
C1042      C1043   1.407       .  A
C1043      C1044   1.404       .  A
C1043      H1056   1.084       .  S
C1044      C1046   1.444       .  S
C1045      N1049   1.157       .  T
C1046      N1050   1.157       .  T
C1047      N1052   1.157       .  T
C1048      N1051   1.157   1_565  T
C1057      C1058   1.412       .  A
C1057      C1062   1.404       .  A
C1057      C1071   1.443       .  S
C1058      C1059   1.405       .  A
C1058      C1063   1.494       .  S
C1059      C1060   1.404       .  A
C1059      H1078   1.084       .  S
C1060      C1061   1.411       .  A
C1060      C1072   1.444       .  S
C1061      C1062   1.404       .  A
C1062      H1077   1.084       .  S
C1063      C1064   1.406       .  A
C1063      C1068   1.411       .  A
C1064      C1065   1.411       .  A
C1064      H1079   1.084       .  S
C1065      C1066   1.417       .  A
C1065      C1069   1.442       .  S
C1066      C1067   1.407       .  A
C1067      C1068   1.400       .  A
C1067      H1080   1.085       .  S
C1068      C1070   1.445       .  S
C1069      N1073   1.157       .  T
C1070      N1074   1.157       .  T
C1071      N1076   1.157       .  T
C1072      N1075   1.157       .  T
C1081      C1082   1.412       .  A
C1081      C1086   1.405       .  A
C1081      C1095   1.443       .  S
C1082      C1083   1.402       .  A
C1082      C1087   1.490       .  S
C1083      C1084   1.401   1_545  A
C1083      H1102   1.085       .  S
C1084      C1085   1.413       .  A
C1084      C1096   1.443       .  S
C1085      C1086   1.405   1_565  A
C1086      H1101   1.085       .  S
C1087      C1088   1.401   1_545  A
C1087      C1092   1.408       .  A
C1088      C1089   1.400       .  A
C1088      H1103   1.085       .  S
C1089      C1090   1.421       .  A
C1089      C1093   1.444       .  S
C1090      C1091   1.414   1_565  A
C1091      C1092   1.406       .  A
C1091      H1104   1.084       .  S
C1092      C1094   1.444       .  S
C1093      N1097   1.157       .  T
C1094      N1098   1.157       .  T
C1095      N1100   1.157       .  T
C1096      N1099   1.157       .  T
C1105      C1106   1.412       .  A
C1105      C1110   1.399       .  A
C1105      C1119   1.445       .  S
C1106      C1107   1.403       .  A
C1106      C1111   1.489       .  S
C1107      C1108   1.405       .  A
C1107      H1126   1.085       .  S
C1108      C1109   1.419       .  A
C1108      C1120   1.444       .  S
C1109      C1110   1.406       .  A
C1110      H1125   1.085       .  S
C1111      C1112   1.405       .  A
C1111      C1116   1.409       .  A
C1112      C1113   1.404       .  A
C1112      H1127   1.085       .  S
C1113      C1114   1.411       .  A
C1113      C1117   1.442       .  S
C1114      C1115   1.406       .  A
C1115      C1116   1.399       .  A
C1115      H1128   1.085       .  S
C1116      C1118   1.444       .  S
C1117      N1121   1.157       .  T
C1118      N1122   1.157       .  T
C1119      N1124   1.157       .  T
C1120      N1123   1.157       .  T
C1129      C1130   1.412       .  A
C1129      C1134   1.404       .  A
C1129      C1143   1.443       .  S
C1130      C1131   1.402       .  A
C1130      C1135   1.490       .  S
C1131      C1132   1.402       .  A
C1131      H1150   1.085       .  S
C1132      C1133   1.414       .  A
C1132      C1144   1.444       .  S
C1133      C1134   1.403       .  A
C1134      H1149   1.085       .  S
C1135      C1136   1.403       .  A
C1135      C1140   1.410       .  A
C1136      C1137   1.399       .  A
C1136      H1151   1.085       .  S
C1137      C1138   1.414       .  A
C1137      C1141   1.445       .  S
C1138      C1139   1.407       .  A
C1139      C1140   1.406       .  A
C1139      H1152   1.085       .  S
C1140      C1142   1.442       .  S
C1141      N1145   1.157       .  T
C1142      N1146   1.157       .  T
C1143      N1148   1.157       .  T
C1144      N1147   1.157       .  T
C1153      C1154   1.418       .  A
C1153      C1158   1.407       .  A
C1153      C1167   1.443       .  S
C1154      C1155   1.405       .  A
C1154      C1159   1.500       .  S
C1155      C1156   1.400       .  A
C1155      H1174   1.084       .  S
C1156      C1157   1.411       .  A
C1156      C1168   1.443       .  S
C1157      C1158   1.401       .  A
C1158      H1173   1.083       .  S
C1159      C1160   1.403       .  A
C1159      C1164   1.416       .  A
C1160      C1161   1.404       .  A
C1160      H1175   1.085       .  S
C1161      C1162   1.417       .  A
C1161      C1165   1.442       .  S
C1162      C1163   1.404       .  A
C1163      C1164   1.404       .  A
C1163      H1176   1.081       .  S
C1164      C1166   1.444       .  S
C1165      N1169   1.157       .  T
C1166      N1170   1.157       .  T
C1167      N1172   1.157       .  T
C1168      N1171   1.157       .  T
C1177      C1178   1.410       .  A
C1177      C1182   1.410       .  A
C1177      C1191   1.442       .  S
C1178      C1179   1.401       .  A
C1178      C1183   1.494       .  S
C1179      C1180   1.400       .  A
C1179      H1198   1.085       .  S
C1180      C1181   1.420       .  A
C1180      C1192   1.445       .  S
C1181      C1182   1.412       .  A
C1182      H1197   1.084       .  S
C1183      C1184   1.402       .  A
C1183      C1188   1.413   1_545  A
C1184      C1185   1.402   1_545  A
C1184      H1199   1.085       .  S
C1185      C1186   1.413       .  A
C1185      C1189   1.443   1_565  S
C1186      C1187   1.406       .  A
C1187      C1188   1.409       .  A
C1187      H1200   1.085       .  S
C1188      C1190   1.443       .  S
C1189      N1193   1.157       .  T
C1190      N1194   1.157       .  T
C1191      N1196   1.157   1_545  T
C1192      N1195   1.157       .  T
C1201      C1202   1.409       .  A
C1201      C1206   1.402       .  A
C1201      C1215   1.445       .  S
C1202      C1203   1.404       .  A
C1202      C1207   1.487       .  S
C1203      C1204   1.405       .  A
C1203      H1222   1.084       .  S
C1204      C1205   1.410       .  A
C1204      C1216   1.442       .  S
C1205      C1206   1.405       .  A
C1206      H1221   1.085       .  S
C1207      C1208   1.404       .  A
C1207      C1212   1.410       .  A
C1208      C1209   1.407       .  A
C1208      H1223   1.084       .  S
C1209      C1210   1.415       .  A
C1209      C1213   1.444       .  S
C1210      C1211   1.406       .  A
C1211      C1212   1.398       .  A
C1211      H1224   1.085       .  S
C1212      C1214   1.445       .  S
C1213      N1217   1.157       .  T
C1214      N1218   1.157       .  T
C1215      N1220   1.157       .  T
C1216      N1219   1.157       .  T
C1225      C1226   1.414       .  A
C1225      C1230   1.404       .  A
C1225      C1239   1.444       .  S
C1226      C1227   1.405       .  A
C1226      C1231   1.497       .  S
C1227      C1228   1.403       .  A
C1227      H1246   1.084       .  S
C1228      C1229   1.413       .  A
C1228      C1240   1.444       .  S
C1229      C1230   1.403       .  A
C1230      H1245   1.085       .  S
C1231      C1232   1.407       .  A
C1231      C1236   1.415       .  A
C1232      C1233   1.399       .  A
C1232      H1247   1.084       .  S
C1233      C1234   1.407       .  A
C1233      C1237   1.444       .  S
C1234      C1235   1.405       .  A
C1235      C1236   1.408       .  A
C1235      H1248   1.084       .  S
C1236      C1238   1.443       .  S
C1237      N1241   1.157       .  T
C1238      N1242   1.157       .  T
C1239      N1244   1.157       .  T
C1240      N1243   1.157       .  T
C1249      C1250   1.416       .  A
C1249      C1254   1.410       .  A
C1249      C1263   1.443       .  S
C1250      C1251   1.405       .  A
C1250      C1255   1.504       .  S
C1251      C1252   1.403       .  A
C1251      H1270   1.084       .  S
C1252      C1253   1.415       .  A
C1252      C1264   1.444       .  S
C1253      C1254   1.405       .  A
C1254      H1269   1.085       .  S
C1255      C1256   1.407       .  A
C1255      C1260   1.415       .  A
C1256      C1257   1.404       .  A
C1256      H1271   1.084       .  S
C1257      C1258   1.415       .  A
C1257      C1261   1.444       .  S
C1258      C1259   1.410       .  A
C1259      C1260   1.408       .  A
C1259      H1272   1.085       .  S
C1260      C1262   1.444       .  S
C1261      N1265   1.157       .  T
C1262      N1266   1.157       .  T
C1263      N1268   1.157       .  T
C1264      N1267   1.157       .  T
C1273      C1274   1.419       .  A
C1273      C1278   1.406       .  A
C1273      C1287   1.444       .  S
C1274      C1275   1.405       .  A
C1274      C1279   1.505       .  S
C1275      C1276   1.403       .  A
C1275      H1294   1.084       .  S
C1276      C1277   1.413       .  A
C1276      C1288   1.442       .  S
C1277      C1278   1.402       .  A
C1278      H1293   1.080       .  S
C1279      C1280   1.404       .  A
C1279      C1284   1.420       .  A
C1280      C1281   1.400       .  A
C1280      H1295   1.084       .  S
C1281      C1282   1.413       .  A
C1281      C1285   1.441       .  S
C1282      C1283   1.402       .  A
C1283      C1284   1.408       .  A
C1283      H1296   1.084       .  S
C1284      C1286   1.443       .  S
C1285      N1289   1.157       .  T
C1286      N1290   1.157       .  T
C1287      N1292   1.157       .  T
C1288      N1291   1.157       .  T
C1297      C1298   1.412       .  A
C1297      C1302   1.399       .  A
C1297      C1311   1.445       .  S
C1298      C1299   1.402   1_565  A
C1298      C1303   1.486       .  S
C1299      C1300   1.404       .  A
C1299      H1318   1.084       .  S
C1300      C1301   1.416   1_545  A
C1300      C1312   1.444       .  S
C1301      C1302   1.405       .  A
C1302      H1317   1.085       .  S
C1303      C1304   1.403       .  A
C1303      C1308   1.411   1_565  A
C1304      C1305   1.400       .  A
C1304      H1319   1.085       .  S
C1305      C1306   1.413       .  A
C1305      C1309   1.444       .  S
C1306      C1307   1.404       .  A
C1307      C1308   1.402   1_565  A
C1307      H1320   1.085       .  S
C1308      C1310   1.443       .  S
C1309      N1313   1.157       .  T
C1310      N1314   1.157       .  T
C1311      N1316   1.157       .  T
C1312      N1315   1.157       .  T
C1321      C1322   1.415       .  A
C1321      C1326   1.400       .  A
C1321      C1335   1.445       .  S
C1322      C1323   1.405       .  A
C1322      C1327   1.489       .  S
C1323      C1324   1.401       .  A
C1323      H1342   1.085       .  S
C1324      C1325   1.409       .  A
C1324      C1336   1.445       .  S
C1325      C1326   1.400       .  A
C1326      H1341   1.085       .  S
C1327      C1328   1.402       .  A
C1327      C1332   1.414       .  A
C1328      C1329   1.397       .  A
C1328      H1343   1.085       .  S
C1329      C1330   1.413       .  A
C1329      C1333   1.446       .  S
C1330      C1331   1.401       .  A
C1331      C1332   1.404       .  A
C1331      H1344   1.084       .  S
C1332      C1334   1.443       .  S
C1333      N1337   1.157       .  T
C1334      N1338   1.157       .  T
C1335      N1340   1.157       .  T
C1336      N1339   1.157       .  T
C1345      C1346   1.412       .  A
C1345      C1350   1.405       .  A
C1345      C1359   1.443       .  S
C1346      C1347   1.400       .  A
C1346      C1351   1.488       .  S
C1347      C1348   1.401       .  A
C1347      H1366   1.085       .  S
C1348      C1349   1.414       .  A
C1348      C1360   1.444       .  S
C1349      C1350   1.403       .  A
C1350      H1365   1.085       .  S
C1351      C1352   1.402       .  A
C1351      C1356   1.411       .  A
C1352      C1353   1.408       .  A
C1352      H1367   1.084       .  S
C1353      C1354   1.419       .  A
C1353      C1357   1.444       .  S
C1354      C1355   1.407       .  A
C1355      C1356   1.400       .  A
C1355      H1368   1.085       .  S
C1356      C1358   1.445       .  S
C1357      N1361   1.157       .  T
C1358      N1362   1.157       .  T
C1359      N1364   1.157       .  T
C1360      N1363   1.157       .  T
C1369      C1370   1.410       .  A
C1369      C1374   1.400       .  A
C1369      C1383   1.444       .  S
C1370      C1371   1.403       .  A
C1370      C1375   1.488   1_655  S
C1371      C1372   1.405       .  A
C1371      H1390   1.085   1_655  S
C1372      C1373   1.413       .  A
C1372      C1384   1.443       .  S
C1373      C1374   1.404       .  A
C1374      H1389   1.085       .  S
C1375      C1376   1.400       .  A
C1375      C1380   1.408       .  A
C1376      C1377   1.397       .  A
C1376      H1391   1.086       .  S
C1377      C1378   1.419       .  A
C1377      C1381   1.445       .  S
C1378      C1379   1.411       .  A
C1379      C1380   1.408       .  A
C1379      H1392   1.084       .  S
C1380      C1382   1.442       .  S
C1381      N1385   1.157       .  T
C1382      N1386   1.157       .  T
C1383      N1388   1.157       .  T
C1384      N1387   1.157       .  T
C1393      C1394   1.415       .  A
C1393      C1398   1.404       .  A
C1393      C1407   1.444       .  S
C1394      C1395   1.402       .  A
C1394      C1399   1.495       .  S
C1395      C1396   1.402       .  A
C1395      H1414   1.085       .  S
C1396      C1397   1.415       .  A
C1396      C1408   1.442       .  S
C1397      C1398   1.403       .  A
C1398      H1413   1.082       .  S
C1399      C1400   1.407       .  A
C1399      C1404   1.411       .  A
C1400      C1401   1.408       .  A
C1400      H1415   1.084       .  S
C1401      C1402   1.412       .  A
C1401      C1405   1.441   1_545  S
C1402      C1403   1.406       .  A
C1403      C1404   1.399       .  A
C1403      H1416   1.084       .  S
C1404      C1406   1.444       .  S
C1405      N1409   1.157       .  T
C1406      N1410   1.157       .  T
C1407      N1412   1.157       .  T
C1408      N1411   1.157       .  T
C1417      C1418   1.417       .  A
C1417      C1422   1.405   1_655  A
C1417      C1431   1.443       .  S
C1418      C1419   1.406       .  A
C1418      C1423   1.499       .  S
C1419      C1420   1.401   1_655  A
C1419      H1438   1.085       .  S
C1420      C1421   1.413       .  A
C1420      C1432   1.444       .  S
C1421      C1422   1.403       .  A
C1422      H1437   1.085       .  S
C1423      C1424   1.408       .  A
C1423      C1428   1.415       .  A
C1424      C1425   1.407       .  A
C1424      H1439   1.085       .  S
C1425      C1426   1.416       .  A
C1425      C1429   1.444       .  S
C1426      C1427   1.407       .  A
C1427      C1428   1.401       .  A
C1427      H1440   1.085       .  S
C1428      C1430   1.444       .  S
C1429      N1433   1.157       .  T
C1430      N1434   1.157       .  T
C1431      N1436   1.157       .  T
C1432      N1435   1.157       .  T
C1441      C1442   1.416       .  A
C1441      C1446   1.406       .  A
C1441      C1455   1.444       .  S
C1442      C1443   1.406       .  A
C1442      C1447   1.504       .  S
C1443      C1444   1.404       .  A
C1443      H1462   1.084       .  S
C1444      C1445   1.413       .  A
C1444      C1456   1.444       .  S
C1445      C1446   1.405       .  A
C1446      H1461   1.084       .  S
C1447      C1448   1.405       .  A
C1447      C1452   1.414       .  A
C1448      C1449   1.403       .  A
C1448      H1463   1.084       .  S
C1449      C1450   1.420       .  A
C1449      C1453   1.445       .  S
C1450      C1451   1.410       .  A
C1451      C1452   1.408       .  A
C1451      H1464   1.084       .  S
C1452      C1454   1.443       .  S
C1453      N1457   1.157       .  T
C1454      N1458   1.157       .  T
C1455      N1460   1.157       .  T
C1456      N1459   1.157       .  T
C1465      C1466   1.411       .  A
C1465      C1470   1.402       .  A
C1465      C1479   1.445       .  S
C1466      C1467   1.403       .  A
C1466      C1471   1.494       .  S
C1467      C1468   1.410       .  A
C1467      H1486   1.084       .  S
C1468      C1469   1.421       .  A
C1468      C1480   1.444       .  S
C1469      C1470   1.407       .  A
C1470      H1485   1.085       .  S
C1471      C1472   1.404       .  A
C1471      C1476   1.412       .  A
C1472      C1473   1.403       .  A
C1472      H1487   1.085       .  S
C1473      C1474   1.413       .  A
C1473      C1477   1.444       .  S
C1474      C1475   1.405       .  A
C1475      C1476   1.408       .  A
C1475      H1488   1.085       .  S
C1476      C1478   1.443       .  S
C1477      N1481   1.157       .  T
C1478      N1482   1.157       .  T
C1479      N1484   1.157       .  T
C1480      N1483   1.158   1_455  T
C1489      C1490   1.413       .  A
C1489      C1494   1.402       .  A
C1489      C1503   1.444       .  S
C1490      C1491   1.407       .  A
C1490      C1495   1.500       .  S
C1491      C1492   1.410       .  A
C1491      H1510   1.084       .  S
C1492      C1493   1.412       .  A
C1492      C1504   1.443       .  S
C1493      C1494   1.403       .  A
C1494      H1509   1.085       .  S
C1495      C1496   1.402       .  A
C1495      C1500   1.412       .  A
C1496      C1497   1.402       .  A
C1496      H1511   1.085       .  S
C1497      C1498   1.422       .  A
C1497      C1501   1.445       .  S
C1498      C1499   1.411       .  A
C1499      C1500   1.411       .  A
C1499      H1512   1.084       .  S
C1500      C1502   1.442       .  S
C1501      N1505   1.158       .  T
C1502      N1506   1.157       .  T
C1503      N1508   1.157       .  T
C1504      N1507   1.157       .  T
C1513      C1514   1.418       .  A
C1513      C1518   1.408       .  A
C1513      C1527   1.443       .  S
C1514      C1515   1.404       .  A
C1514      C1519   1.505       .  S
C1515      C1516   1.405       .  A
C1515      H1534   1.085       .  S
C1516      C1517   1.417       .  A
C1516      C1528   1.443       .  S
C1517      C1518   1.403       .  A
C1518      H1533   1.080       .  S
C1519      C1520   1.410       .  A
C1519      C1524   1.414       .  A
C1520      C1521   1.409       .  A
C1520      H1535   1.084       .  S
C1521      C1522   1.410       .  A
C1521      C1525   1.440       .  S
C1522      C1523   1.408       .  A
C1523      C1524   1.403       .  A
C1523      H1536   1.084       .  S
C1524      C1526   1.444       .  S
C1525      N1529   1.157       .  T
C1526      N1530   1.157       .  T
C1527      N1532   1.157       .  T
C1528      N1531   1.157       .  T
C1537      C1538   1.416       .  A
C1537      C1542   1.407       .  A
C1537      C1551   1.444       .  S
C1538      C1539   1.406       .  A
C1538      C1543   1.503       .  S
C1539      C1540   1.403       .  A
C1539      H1558   1.084       .  S
C1540      C1541   1.411       .  A
C1540      C1552   1.444       .  S
C1541      C1542   1.404       .  A
C1542      H1557   1.084       .  S
C1543      C1544   1.406       .  A
C1543      C1548   1.413       .  A
C1544      C1545   1.404       .  A
C1544      H1559   1.085       .  S
C1545      C1546   1.420       .  A
C1545      C1549   1.445       .  S
C1546      C1547   1.410       .  A
C1547      C1548   1.408       .  A
C1547      H1560   1.084       .  S
C1548      C1550   1.443       .  S
C1549      N1553   1.158       .  T
C1550      N1554   1.157   1_554  T
C1551      N1556   1.157       .  T
C1552      N1555   1.157       .  T
C1561      C1562   1.414       .  A
C1561      C1566   1.408       .  A
C1561      C1575   1.443       .  S
C1562      C1563   1.401       .  A
C1562      C1567   1.495       .  S
C1563      C1564   1.398       .  A
C1563      H1582   1.085       .  S
C1564      C1565   1.413       .  A
C1564      C1576   1.443       .  S
C1565      C1566   1.405       .  A
C1566      H1581   1.085       .  S
C1567      C1568   1.403       .  A
C1567      C1572   1.417       .  A
C1568      C1569   1.406       .  A
C1568      H1583   1.084       .  S
C1569      C1570   1.418       .  A
C1569      C1573   1.444       .  S
C1570      C1571   1.403       .  A
C1571      C1572   1.400       .  A
C1571      H1584   1.085       .  S
C1572      C1574   1.446       .  S
C1573      N1577   1.157       .  T
C1574      N1578   1.157       .  T
C1575      N1580   1.157       .  T
C1576      N1579   1.157       .  T
C1585      C1586   1.411       .  A
C1585      C1590   1.407       .  A
C1585      C1599   1.443       .  S
C1586      C1587   1.398       .  A
C1586      C1591   1.485       .  S
C1587      C1588   1.397       .  A
C1587      H1606   1.085       .  S
C1588      C1589   1.416       .  A
C1588      C1600   1.446       .  S
C1589      C1590   1.405       .  A
C1590      H1605   1.085       .  S
C1591      C1592   1.401       .  A
C1591      C1596   1.410       .  A
C1592      C1593   1.407       .  A
C1592      H1607   1.085       .  S
C1593      C1594   1.420       .  A
C1593      C1597   1.444       .  S
C1594      C1595   1.406       .  A
C1595      C1596   1.398       .  A
C1595      H1608   1.085       .  S
C1596      C1598   1.445       .  S
C1597      N1601   1.157       .  T
C1598      N1602   1.157       .  T
C1599      N1604   1.157       .  T
C1600      N1603   1.157       .  T
C1609      C1610   1.407       .  A
C1609      C1614   1.403       .  A
C1609      C1623   1.443       .  S
C1610      C1611   1.400       .  A
C1610      C1615   1.481       .  S
C1611      C1612   1.395       .  A
C1611      H1630   1.086   1_554  S
C1612      C1613   1.417       .  A
C1612      C1624   1.445   1_554  S
C1613      C1614   1.411       .  A
C1614      H1629   1.083       .  S
C1615      C1616   1.404       .  A
C1615      C1620   1.409   1_565  A
C1616      C1617   1.401       .  A
C1616      H1631   1.085       .  S
C1617      C1618   1.410   1_565  A
C1617      C1621   1.443   1_554  S
C1618      C1619   1.405       .  A
C1619      C1620   1.399       .  A
C1619      H1632   1.085       .  S
C1620      C1622   1.445       .  S
C1621      N1625   1.157       .  T
C1622      N1626   1.157       .  T
C1623      N1628   1.157       .  T
C1624      N1627   1.157       .  T
C1633      C1634   1.418       .  A
C1633      C1638   1.410       .  A
C1633      C1647   1.443   1_565  S
C1634      C1635   1.405       .  A
C1634      C1639   1.503       .  S
C1635      C1636   1.402       .  A
C1635      H1654   1.085       .  S
C1636      C1637   1.411       .  A
C1636      C1648   1.441       .  S
C1637      C1638   1.403       .  A
C1638      H1653   1.083       .  S
C1639      C1640   1.406       .  A
C1639      C1644   1.411       .  A
C1640      C1641   1.406   1_554  A
C1640      H1655   1.085   1_554  S
C1641      C1642   1.416   1_566  A
C1641      C1645   1.438       .  S
C1642      C1643   1.411       .  A
C1643      C1644   1.404   1_545  A
C1643      H1656   1.083       .  S
C1644      C1646   1.443       .  S
C1645      N1649   1.157       .  T
C1646      N1650   1.157       .  T
C1647      N1652   1.157       .  T
C1648      N1651   1.157       .  T
C1657      C1658   1.410       .  A
C1657      C1662   1.407       .  A
C1657      C1671   1.443       .  S
C1658      C1659   1.400       .  A
C1658      C1663   1.492       .  S
C1659      C1660   1.403       .  A
C1659      H1678   1.085       .  S
C1660      C1661   1.415       .  A
C1660      C1672   1.441       .  S
C1661      C1662   1.407       .  A
C1662      H1677   1.085       .  S
C1663      C1664   1.404       .  A
C1663      C1668   1.409       .  A
C1664      C1665   1.411       .  A
C1664      H1679   1.084       .  S
C1665      C1666   1.420       .  A
C1665      C1669   1.443       .  S
C1666      C1667   1.409       .  A
C1667      C1668   1.399       .  A
C1667      H1680   1.085       .  S
C1668      C1670   1.445       .  S
C1669      N1673   1.157       .  T
C1670      N1674   1.157       .  T
C1671      N1676   1.157       .  T
C1672      N1675   1.157       .  T
C1681      C1682   1.415       .  A
C1681      C1686   1.402       .  A
C1681      C1695   1.444       .  S
C1682      C1683   1.405       .  A
C1682      C1687   1.494       .  S
C1683      C1684   1.403       .  A
C1683      H1702   1.084       .  S
C1684      C1685   1.410       .  A
C1684      C1696   1.444       .  S
C1685      C1686   1.402       .  A
C1686      H1701   1.084       .  S
C1687      C1688   1.401       .  A
C1687      C1692   1.412       .  A
C1688      C1689   1.397       .  A
C1688      H1703   1.085       .  S
C1689      C1690   1.419       .  A
C1689      C1693   1.443       .  S
C1690      C1691   1.411       .  A
C1691      C1692   1.408       .  A
C1691      H1704   1.084       .  S
C1692      C1694   1.443       .  S
C1693      N1697   1.157       .  T
C1694      N1698   1.157       .  T
C1695      N1700   1.157       .  T
C1696      N1699   1.157       .  T
C1705      C1706   1.409       .  A
C1705      C1710   1.405       .  A
C1705      C1719   1.443       .  S
C1706      C1707   1.403       .  A
C1706      C1711   1.490       .  S
C1707      C1708   1.404       .  A
C1707      H1726   1.085       .  S
C1708      C1709   1.415       .  A
C1708      C1720   1.444       .  S
C1709      C1710   1.406       .  A
C1710      H1725   1.085       .  S
C1711      C1712   1.401       .  A
C1711      C1716   1.409       .  A
C1712      C1713   1.408       .  A
C1712      H1727   1.085       .  S
C1713      C1714   1.421       .  A
C1713      C1717   1.443       .  S
C1714      C1715   1.409       .  A
C1715      C1716   1.400       .  A
C1715      H1728   1.085       .  S
C1716      C1718   1.445       .  S
C1717      N1721   1.157       .  T
C1718      N1722   1.157       .  T
C1719      N1724   1.157       .  T
C1720      N1723   1.157       .  T
C1729      C1730   1.415       .  A
C1729      C1734   1.408       .  A
C1729      C1743   1.442       .  S
C1730      C1731   1.403       .  A
C1730      C1735   1.500       .  S
C1731      C1732   1.402       .  A
C1731      H1750   1.085       .  S
C1732      C1733   1.419       .  A
C1732      C1744   1.445       .  S
C1733      C1734   1.404       .  A
C1734      H1749   1.084       .  S
C1735      C1736   1.406       .  A
C1735      C1740   1.414       .  A
C1736      C1737   1.408       .  A
C1736      H1751   1.085       .  S
C1737      C1738   1.419       .  A
C1737      C1741   1.444       .  S
C1738      C1739   1.407       .  A
C1739      C1740   1.404       .  A
C1739      H1752   1.085       .  S
C1740      C1742   1.444       .  S
C1741      N1745   1.157       .  T
C1742      N1746   1.157       .  T
C1743      N1748   1.157       .  T
C1744      N1747   1.158       .  T
C1753      C1754   1.413       .  A
C1753      C1758   1.411       .  A
C1753      C1767   1.443       .  S
C1754      C1755   1.403       .  A
C1754      C1759   1.501       .  S
C1755      C1756   1.401       .  A
C1755      H1774   1.085       .  S
C1756      C1757   1.419       .  A
C1756      C1768   1.442       .  S
C1757      C1758   1.410       .  A
C1758      H1773   1.080       .  S
C1759      C1760   1.403       .  A
C1759      C1764   1.416       .  A
C1760      C1761   1.398       .  A
C1760      H1775   1.085       .  S
C1761      C1762   1.411       .  A
C1761      C1765   1.441       .  S
C1762      C1763   1.407       .  A
C1763      C1764   1.412       .  A
C1763      H1776   1.082       .  S
C1764      C1766   1.442       .  S
C1765      N1769   1.157       .  T
C1766      N1770   1.157       .  T
C1767      N1772   1.157       .  T
C1768      N1771   1.157       .  T
C1777      C1778   1.412       .  A
C1777      C1782   1.401       .  A
C1777      C1791   1.445       .  S
C1778      C1779   1.406       .  A
C1778      C1783   1.496       .  S
C1779      C1780   1.411       .  A
C1779      H1798   1.084       .  S
C1780      C1781   1.417       .  A
C1780      C1792   1.443       .  S
C1781      C1782   1.406       .  A
C1782      H1797   1.085       .  S
C1783      C1784   1.406       .  A
C1783      C1788   1.412       .  A
C1784      C1785   1.404       .  A
C1784      H1799   1.085       .  S
C1785      C1786   1.411       .  A
C1785      C1789   1.444       .  S
C1786      C1787   1.404       .  A
C1787      C1788   1.405       .  A
C1787      H1800   1.084       .  S
C1788      C1790   1.442       .  S
C1789      N1793   1.157       .  T
C1790      N1794   1.157       .  T
C1791      N1796   1.157       .  T
C1792      N1795   1.157       .  T
C1801      C1802   1.417       .  A
C1801      C1806   1.405       .  A
C1801      C1815   1.444       .  S
C1802      C1803   1.405       .  A
C1802      C1807   1.498   1_655  S
C1803      C1804   1.400       .  A
C1803      H1822   1.084       .  S
C1804      C1805   1.412       .  A
C1804      C1816   1.444       .  S
C1805      C1806   1.403       .  A
C1806      H1821   1.085       .  S
C1807      C1808   1.405       .  A
C1807      C1812   1.415       .  A
C1808      C1809   1.400       .  A
C1808      H1823   1.085       .  S
C1809      C1810   1.417       .  A
C1809      C1813   1.444       .  S
C1810      C1811   1.408       .  A
C1811      C1812   1.405       .  A
C1811      H1824   1.085       .  S
C1812      C1814   1.444       .  S
C1813      N1817   1.157       .  T
C1814      N1818   1.157       .  T
C1815      N1820   1.157   1_655  T
C1816      N1819   1.157       .  T
C1825      C1826   1.409       .  A
C1825      C1830   1.400       .  A
C1825      C1839   1.446       .  S
C1826      C1827   1.401       .  A
C1826      C1831   1.489       .  S
C1827      C1828   1.409       .  A
C1827      H1846   1.084       .  S
C1828      C1829   1.422       .  A
C1828      C1840   1.443       .  S
C1829      C1830   1.410       .  A
C1830      H1845   1.084       .  S
C1831      C1832   1.405       .  A
C1831      C1836   1.410       .  A
C1832      C1833   1.406       .  A
C1832      H1847   1.084       .  S
C1833      C1834   1.410       .  A
C1833      C1837   1.444       .  S
C1834      C1835   1.404       .  A
C1835      C1836   1.401       .  A
C1835      H1848   1.085       .  S
C1836      C1838   1.444       .  S
C1837      N1841   1.157       .  T
C1838      N1842   1.157       .  T
C1839      N1844   1.157       .  T
C1840      N1843   1.157       .  T
C1849      C1850   1.415       .  A
C1849      C1854   1.410       .  A
C1849      C1863   1.443       .  S
C1850      C1851   1.402       .  A
C1850      C1855   1.499       .  S
C1851      C1852   1.400       .  A
C1851      H1870   1.085       .  S
C1852      C1853   1.415       .  A
C1852      C1864   1.445       .  S
C1853      C1854   1.405       .  A
C1854      H1869   1.084       .  S
C1855      C1856   1.404       .  A
C1855      C1860   1.412       .  A
C1856      C1857   1.405       .  A
C1856      H1871   1.085       .  S
C1857      C1858   1.418       .  A
C1857      C1861   1.441       .  S
C1858      C1859   1.410       .  A
C1859      C1860   1.408       .  A
C1859      H1872   1.084       .  S
C1860      C1862   1.443       .  S
C1861      N1865   1.156       .  T
C1862      N1866   1.157       .  T
C1863      N1868   1.157       .  T
C1864      N1867   1.157       .  T
C1873      C1874   1.415       .  A
C1873      C1878   1.405       .  A
C1873      C1887   1.444       .  S
C1874      C1875   1.404       .  A
C1874      C1879   1.500       .  S
C1875      C1876   1.403       .  A
C1875      H1894   1.085       .  S
C1876      C1877   1.415       .  A
C1876      C1888   1.442       .  S
C1877      C1878   1.405       .  A
C1878      H1893   1.081       .  S
C1879      C1880   1.405       .  A
C1879      C1884   1.418       .  A
C1880      C1881   1.401       .  A
C1880      H1895   1.084       .  S
C1881      C1882   1.411       .  A
C1881      C1885   1.443       .  S
C1882      C1883   1.401       .  A
C1883      C1884   1.407       .  A
C1883      H1896   1.083       .  S
C1884      C1886   1.443       .  S
C1885      N1889   1.157       .  T
C1886      N1890   1.157       .  T
C1887      N1892   1.157       .  T
C1888      N1891   1.157       .  T
C1897      C1898   1.411       .  A
C1897      C1902   1.398   1_545  A
C1897      C1911   1.444       .  S
C1898      C1899   1.404       .  A
C1898      C1903   1.488       .  S
C1899      C1900   1.407   1_545  A
C1899      H1918   1.084       .  S
C1900      C1901   1.411       .  A
C1900      C1912   1.443       .  S
C1901      C1902   1.401       .  A
C1902      H1917   1.084       .  S
C1903      C1904   1.403       .  A
C1903      C1908   1.408       .  A
C1904      C1905   1.409       .  A
C1904      H1919   1.084       .  S
C1905      C1906   1.422       .  A
C1905      C1909   1.443       .  S
C1906      C1907   1.408       .  A
C1907      C1908   1.396       .  A
C1907      H1920   1.085       .  S
C1908      C1910   1.445       .  S
C1909      N1913   1.157       .  T
C1910      N1914   1.157       .  T
C1911      N1916   1.157       .  T
C1912      N1915   1.157       .  T
C1921      C1922   1.413       .  A
C1921      C1926   1.405       .  A
C1921      C1935   1.445       .  S
C1922      C1923   1.404       .  A
C1922      C1927   1.498       .  S
C1923      C1924   1.409       .  A
C1923      H1942   1.084       .  S
C1924      C1925   1.416       .  A
C1924      C1936   1.442       .  S
C1925      C1926   1.407       .  A
C1926      H1941   1.085       .  S
C1927      C1928   1.404       .  A
C1927      C1932   1.412       .  A
C1928      C1929   1.408       .  A
C1928      H1943   1.085       .  S
C1929      C1930   1.415       .  A
C1929      C1933   1.442       .  S
C1930      C1931   1.406       .  A
C1931      C1932   1.405       .  A
C1931      H1944   1.085       .  S
C1932      C1934   1.444       .  S
C1933      N1937   1.157       .  T
C1934      N1938   1.157   1_455  T
C1935      N1940   1.157   1_565  T
C1936      N1939   1.157       .  T
C1945      C1946   1.412       .  A
C1945      C1950   1.407       .  A
C1945      C1959   1.444       .  S
C1946      C1947   1.401       .  A
C1946      C1951   1.493       .  S
C1947      C1948   1.396       .  A
C1947      H1966   1.085       .  S
C1948      C1949   1.419       .  A
C1948      C1960   1.445       .  S
C1949      C1950   1.411       .  A
C1950      H1965   1.084       .  S
C1951      C1952   1.404       .  A
C1951      C1956   1.415       .  A
C1952      C1953   1.402   1_655  A
C1952      H1967   1.085       .  S
C1953      C1954   1.413       .  A
C1953      C1957   1.444       .  S
C1954      C1955   1.403       .  A
C1955      C1956   1.402   1_455  A
C1955      H1968   1.085       .  S
C1956      C1958   1.444       .  S
C1957      N1961   1.157       .  T
C1958      N1962   1.157       .  T
C1959      N1964   1.157       .  T
C1960      N1963   1.157       .  T
C1969      C1970   1.418       .  A
C1969      C1974   1.404       .  A
C1969      C1983   1.444       .  S
C1970      C1971   1.407       .  A
C1970      C1975   1.500       .  S
C1971      C1972   1.401       .  A
C1971      H1990   1.084       .  S
C1972      C1973   1.408       .  A
C1972      C1984   1.442       .  S
C1973      C1974   1.401       .  A
C1974      H1989   1.084       .  S
C1975      C1976   1.404       .  A
C1975      C1980   1.419       .  A
C1976      C1977   1.397       .  A
C1976      H1991   1.084       .  S
C1977      C1978   1.414       .  A
C1977      C1981   1.445       .  S
C1978      C1979   1.402       .  A
C1979      C1980   1.409       .  A
C1979      H1992   1.084       .  S
C1980      C1982   1.443       .  S
C1981      N1985   1.157       .  T
C1982      N1986   1.157       .  T
C1983      N1988   1.157       .  T
C1984      N1987   1.156       .  T
C1993      C1994   1.411       .  A
C1993      C1998   1.398       .  A
C1993      C2007   1.444       .  S
C1994      C1995   1.410       .  A
C1994      C1999   1.501       .  S
C1995      C1996   1.413       .  A
C1995      H2014   1.084       .  S
C1996      C1997   1.412       .  A
C1996      C2008   1.441       .  S
C1997      C1998   1.408       .  A
C1998      H2013   1.084       .  S
C1999      C2000   1.405       .  A
C1999      C2004   1.412       .  A
C2000      C2001   1.405       .  A
C2000      H2015   1.085       .  S
C2001      C2002   1.413       .  A
C2001      C2005   1.439       .  S
C2002      C2003   1.409       .  A
C2003      C2004   1.408       .  A
C2003      H2016   1.084       .  S
C2004      C2006   1.443       .  S
C2005      N2009   1.157       .  T
C2006      N2010   1.157       .  T
C2007      N2012   1.157       .  T
C2008      N2011   1.157       .  T
C2017      C2018   1.414       .  A
C2017      C2022   1.403       .  A
C2017      C2031   1.443       .  S
C2018      C2019   1.405       .  A
C2018      C2023   1.493       .  S
C2019      C2020   1.399       .  A
C2019      H2038   1.084       .  S
C2020      C2021   1.410       .  A
C2020      C2032   1.444       .  S
C2021      C2022   1.403       .  A
C2022      H2037   1.085       .  S
C2023      C2024   1.403       .  A
C2023      C2028   1.411       .  A
C2024      C2025   1.401       .  A
C2024      H2039   1.085       .  S
C2025      C2026   1.420       .  A
C2025      C2029   1.446       .  S
C2026      C2027   1.409       .  A
C2027      C2028   1.404       .  A
C2027      H2040   1.084       .  S
C2028      C2030   1.443       .  S
C2029      N2033   1.158       .  T
C2030      N2034   1.157       .  T
C2031      N2036   1.157       .  T
C2032      N2035   1.157       .  T
C2041      C2042   1.412       .  A
C2041      C2046   1.407       .  A
C2041      C2055   1.443       .  S
C2042      C2043   1.400       .  A
C2042      C2047   1.486       .  S
C2043      C2044   1.395       .  A
C2043      H2062   1.085       .  S
C2044      C2045   1.414       .  A
C2044      C2056   1.446       .  S
C2045      C2046   1.403       .  A
C2046      H2061   1.084   1_565  S
C2047      C2048   1.401       .  A
C2047      C2052   1.409       .  A
C2048      C2049   1.396       .  A
C2048      H2063   1.085       .  S
C2049      C2050   1.415       .  A
C2049      C2053   1.444       .  S
C2050      C2051   1.410       .  A
C2051      C2052   1.408       .  A
C2051      H2064   1.084       .  S
C2052      C2054   1.443       .  S
C2053      N2057   1.157       .  T
C2054      N2058   1.157       .  T
C2055      N2060   1.157       .  T
C2056      N2059   1.157       .  T
C2065      C2066   1.409       .  A
C2065      C2070   1.401       .  A
C2065      C2079   1.444       .  S
C2066      C2067   1.405       .  A
C2066      C2071   1.488       .  S
C2067      C2068   1.405       .  A
C2067      H2086   1.084   1_545  S
C2068      C2069   1.409       .  A
C2068      C2080   1.443       .  S
C2069      C2070   1.405       .  A
C2070      H2085   1.084       .  S
C2071      C2072   1.403       .  A
C2071      C2076   1.411       .  A
C2072      C2073   1.408       .  A
C2072      H2087   1.084       .  S
C2073      C2074   1.415       .  A
C2073      C2077   1.441       .  S
C2074      C2075   1.404       .  A
C2075      C2076   1.399       .  A
C2075      H2088   1.085       .  S
C2076      C2078   1.445       .  S
C2077      N2081   1.156   1_545  T
C2078      N2082   1.157       .  T
C2079      N2084   1.157       .  T
C2080      N2083   1.157   1_545  T
C2089      C2090   1.415       .  A
C2089      C2094   1.400       .  A
C2089      C2103   1.444       .  S
C2090      C2091   1.406       .  A
C2090      C2095   1.494       .  S
C2091      C2092   1.401       .  A
C2091      H2110   1.084       .  S
C2092      C2093   1.410       .  A
C2092      C2104   1.444       .  S
C2093      C2094   1.403       .  A
C2094      H2109   1.084       .  S
C2095      C2096   1.402       .  A
C2095      C2100   1.412       .  A
C2096      C2097   1.399       .  A
C2096      H2111   1.085       .  S
C2097      C2098   1.422       .  A
C2097      C2101   1.445       .  S
C2098      C2099   1.409       .  A
C2099      C2100   1.405       .  A
C2099      H2112   1.084       .  S
C2100      C2102   1.444       .  S
C2101      N2105   1.158       .  T
C2102      N2106   1.157       .  T
C2103      N2108   1.157       .  T
C2104      N2107   1.157       .  T
C2113      C2114   1.413       .  A
C2113      C2118   1.402       .  A
C2113      C2127   1.445       .  S
C2114      C2115   1.408       .  A
C2114      C2119   1.501       .  S
C2115      C2116   1.406       .  A
C2115      H2134   1.084       .  S
C2116      C2117   1.411       .  A
C2116      C2128   1.439       .  S
C2117      C2118   1.409       .  A
C2118      H2133   1.084       .  S
C2119      C2120   1.408       .  A
C2119      C2124   1.414       .  A
C2120      C2121   1.405       .  A
C2120      H2135   1.084       .  S
C2121      C2122   1.407       .  A
C2121      C2125   1.439       .  S
C2122      C2123   1.408       .  A
C2123      C2124   1.404       .  A
C2123      H2136   1.084       .  S
C2124      C2126   1.445       .  S
C2125      N2129   1.157       .  T
C2126      N2130   1.157       .  T
C2127      N2132   1.157       .  T
C2128      N2131   1.157   1_545  T
C2137      C2138   1.413       .  A
C2137      C2142   1.408       .  A
C2137      C2151   1.443       .  S
C2138      C2139   1.401       .  A
C2138      C2143   1.490   1_565  S
C2139      C2140   1.398       .  A
C2139      H2158   1.085       .  S
C2140      C2141   1.413       .  A
C2140      C2152   1.444       .  S
C2141      C2142   1.404       .  A
C2142      H2157   1.084       .  S
C2143      C2144   1.405       .  A
C2143      C2148   1.412       .  A
C2144      C2145   1.402       .  A
C2144      H2159   1.085   1_545  S
C2145      C2146   1.410       .  A
C2145      C2149   1.445       .  S
C2146      C2147   1.403       .  A
C2147      C2148   1.405       .  A
C2147      H2160   1.085       .  S
C2148      C2150   1.443       .  S
C2149      N2153   1.157       .  T
C2150      N2154   1.157       .  T
C2151      N2156   1.157       .  T
C2152      N2155   1.157       .  T
C2161      C2162   1.411       .  A
C2161      C2166   1.403       .  A
C2161      C2175   1.444       .  S
C2162      C2163   1.404       .  A
C2162      C2167   1.495       .  S
C2163      C2164   1.405       .  A
C2163      H2182   1.085       .  S
C2164      C2165   1.416       .  A
C2164      C2176   1.441       .  S
C2165      C2166   1.409       .  A
C2166      H2181   1.085       .  S
C2167      C2168   1.402       .  A
C2167      C2172   1.412       .  A
C2168      C2169   1.405       .  A
C2168      H2183   1.085       .  S
C2169      C2170   1.419       .  A
C2169      C2173   1.441       .  S
C2170      C2171   1.409       .  A
C2171      C2172   1.402       .  A
C2171      H2184   1.085       .  S
C2172      C2174   1.445       .  S
C2173      N2177   1.156       .  T
C2174      N2178   1.157       .  T
C2175      N2180   1.157       .  T
C2176      N2179   1.157       .  T
C2185      C2186   1.407       .  A
C2185      C2190   1.406       .  A
C2185      C2199   1.442       .  S
C2186      C2187   1.402   1_455  A
C2186      C2191   1.492       .  S
C2187      C2188   1.403       .  A
C2187      H2206   1.085       .  S
C2188      C2189   1.423   1_655  A
C2188      C2200   1.446       .  S
C2189      C2190   1.411       .  A
C2190      H2205   1.084       .  S
C2191      C2192   1.403       .  A
C2191      C2196   1.411       .  A
C2192      C2193   1.404       .  A
C2192      H2207   1.085       .  S
C2193      C2194   1.414       .  A
C2193      C2197   1.444       .  S
C2194      C2195   1.405       .  A
C2195      C2196   1.405       .  A
C2195      H2208   1.085       .  S
C2196      C2198   1.443       .  S
C2197      N2201   1.157       .  T
C2198      N2202   1.157       .  T
C2199      N2204   1.157       .  T
C2200      N2203   1.158       .  T
C2209      C2210   1.407       .  A
C2209      C2214   1.406       .  A
C2209      C2223   1.442       .  S
C2210      C2211   1.400       .  A
C2210      C2215   1.484       .  S
C2211      C2212   1.399       .  A
C2211      H2230   1.085       .  S
C2212      C2213   1.420       .  A
C2212      C2224   1.446       .  S
C2213      C2214   1.411       .  A
C2214      H2229   1.084       .  S
C2215      C2216   1.399       .  A
C2215      C2220   1.411       .  A
C2216      C2217   1.398       .  A
C2216      H2231   1.085       .  S
C2217      C2218   1.413       .  A
C2217      C2221   1.443       .  S
C2218      C2219   1.406       .  A
C2219      C2220   1.407       .  A
C2219      H2232   1.084       .  S
C2220      C2222   1.444       .  S
C2221      N2225   1.157       .  T
C2222      N2226   1.157       .  T
C2223      N2228   1.157       .  T
C2224      N2227   1.158       .  T
C2233      C2234   1.418       .  A
C2233      C2238   1.409       .  A
C2233      C2247   1.443       .  S
C2234      C2235   1.403       .  A
C2234      C2239   1.501       .  S
C2235      C2236   1.401       .  A
C2235      H2254   1.085       .  S
C2236      C2237   1.414       .  A
C2236      C2248   1.442       .  S
C2237      C2238   1.402       .  A
C2238      H2253   1.082       .  S
C2239      C2240   1.404       .  A
C2239      C2244   1.415       .  A
C2240      C2241   1.403       .  A
C2240      H2255   1.085       .  S
C2241      C2242   1.417       .  A
C2241      C2245   1.443       .  S
C2242      C2243   1.405       .  A
C2243      C2244   1.405       .  A
C2243      H2256   1.083       .  S
C2244      C2246   1.443       .  S
C2245      N2249   1.157       .  T
C2246      N2250   1.157       .  T
C2247      N2252   1.157       .  T
C2248      N2251   1.157       .  T
C2257      C2258   1.413       .  A
C2257      C2262   1.397       .  A
C2257      C2271   1.445       .  S
C2258      C2259   1.406       .  A
C2258      C2263   1.491       .  S
C2259      C2260   1.404       .  A
C2259      H2278   1.084       .  S
C2260      C2261   1.409       .  A
C2260      C2272   1.443       .  S
C2261      C2262   1.402       .  A
C2262      H2277   1.085       .  S
C2263      C2264   1.401       .  A
C2263      C2268   1.410       .  A
C2264      C2265   1.397       .  A
C2264      H2279   1.085       .  S
C2265      C2266   1.421       .  A
C2265      C2269   1.445       .  S
C2266      C2267   1.412       .  A
C2267      C2268   1.406       .  A
C2267      H2280   1.084       .  S
C2268      C2270   1.444       .  S
C2269      N2273   1.157       .  T
C2270      N2274   1.157       .  T
C2271      N2276   1.157       .  T
C2272      N2275   1.157   1_554  T
C2281      C2282   1.407       .  A
C2281      C2286   1.407       .  A
C2281      C2295   1.443       .  S
C2282      C2283   1.401       .  A
C2282      C2287   1.486       .  S
C2283      C2284   1.399       .  A
C2283      H2302   1.085       .  S
C2284      C2285   1.416       .  A
C2284      C2296   1.444       .  S
C2285      C2286   1.414       .  A
C2286      H2301   1.084       .  S
C2287      C2288   1.404       .  A
C2287      C2292   1.408       .  A
C2288      C2289   1.406       .  A
C2288      H2303   1.085       .  S
C2289      C2290   1.413       .  A
C2289      C2293   1.443       .  S
C2290      C2291   1.406       .  A
C2291      C2292   1.401       .  A
C2291      H2304   1.085       .  S
C2292      C2294   1.444       .  S
C2293      N2297   1.157       .  T
C2294      N2298   1.157       .  T
C2295      N2300   1.157       .  T
C2296      N2299   1.157       .  T
C2305      C2306   1.415       .  A
C2305      C2310   1.403       .  A
C2305      C2319   1.445       .  S
C2306      C2307   1.405       .  A
C2306      C2311   1.493       .  S
C2307      C2308   1.400       .  A
C2307      H2326   1.084       .  S
C2308      C2309   1.408       .  A
C2308      C2320   1.444       .  S
C2309      C2310   1.403       .  A
C2310      H2325   1.084       .  S
C2311      C2312   1.405       .  A
C2311      C2316   1.411       .  A
C2312      C2313   1.400       .  A
C2312      H2327   1.085       .  S
C2313      C2314   1.416       .  A
C2313      C2317   1.444       .  S
C2314      C2315   1.412       .  A
C2315      C2316   1.404       .  A
C2315      H2328   1.084       .  S
C2316      C2318   1.445       .  S
C2317      N2321   1.157       .  T
C2318      N2322   1.157       .  T
C2319      N2324   1.157       .  T
C2320      N2323   1.157       .  T
C2329      C2330   1.408       .  A
C2329      C2334   1.401       .  A
C2329      C2343   1.444       .  S
C2330      C2331   1.401       .  A
C2330      C2335   1.478       .  S
C2331      C2332   1.399       .  A
C2331      H2350   1.085       .  S
C2332      C2333   1.412       .  A
C2332      C2344   1.444       .  S
C2333      C2334   1.404       .  A
C2334      H2349   1.084   1_554  S
C2335      C2336   1.399       .  A
C2335      C2340   1.407       .  A
C2336      C2337   1.404       .  A
C2336      H2351   1.085       .  S
C2337      C2338   1.421       .  A
C2337      C2341   1.444       .  S
C2338      C2339   1.408       .  A
C2339      C2340   1.394       .  A
C2339      H2352   1.084       .  S
C2340      C2342   1.445   1_554  S
C2341      N2345   1.158       .  T
C2342      N2346   1.157       .  T
C2343      N2348   1.157   1_554  T
C2344      N2347   1.157       .  T
C2353      C2354   1.416       .  A
C2353      C2358   1.404   1_554  A
C2353      C2367   1.444   1_554  S
C2354      C2355   1.403       .  A
C2354      C2359   1.492       .  S
C2355      C2356   1.400       .  A
C2355      H2374   1.085       .  S
C2356      C2357   1.410       .  A
C2356      C2368   1.443       .  S
C2357      C2358   1.400   1_554  A
C2358      H2373   1.083       .  S
C2359      C2360   1.403       .  A
C2359      C2364   1.409       .  A
C2360      C2361   1.405       .  A
C2360      H2375   1.085       .  S
C2361      C2362   1.419       .  A
C2361      C2365   1.439       .  S
C2362      C2363   1.411       .  A
C2363      C2364   1.399       .  A
C2363      H2376   1.083       .  S
C2364      C2366   1.444       .  S
C2365      N2369   1.158       .  T
C2366      N2370   1.157       .  T
C2367      N2372   1.157       .  T
C2368      N2371   1.157       .  T
C2377      C2378   1.409       .  A
C2377      C2382   1.410       .  A
C2377      C2391   1.443       .  S
C2378      C2379   1.399       .  A
C2378      C2383   1.488       .  S
C2379      C2380   1.395       .  A
C2379      H2398   1.086       .  S
C2380      C2381   1.421       .  A
C2380      C2392   1.445       .  S
C2381      C2382   1.413       .  A
C2382      H2397   1.084       .  S
C2383      C2384   1.403       .  A
C2383      C2388   1.413       .  A
C2384      C2385   1.403       .  A
C2384      H2399   1.085       .  S
C2385      C2386   1.412       .  A
C2385      C2389   1.444       .  S
C2386      C2387   1.402       .  A
C2387      C2388   1.402       .  A
C2387      H2400   1.082       .  S
C2388      C2390   1.444       .  S
C2389      N2393   1.157       .  T
C2390      N2394   1.157       .  T
C2391      N2396   1.157       .  T
C2392      N2395   1.157       .  T
C2401      C2402   1.411       .  A
C2401      C2406   1.403       .  A
C2401      C2415   1.444       .  S
C2402      C2403   1.403   1_655  A
C2402      C2407   1.487       .  S
C2403      C2404   1.401       .  A
C2403      H2422   1.085       .  S
C2404      C2405   1.409       .  A
C2404      C2416   1.443       .  S
C2405      C2406   1.403   1_455  A
C2406      H2421   1.085       .  S
C2407      C2408   1.403       .  A
C2407      C2412   1.411   1_655  A
C2408      C2409   1.407       .  A
C2408      H2423   1.084       .  S
C2409      C2410   1.419       .  A
C2409      C2413   1.444       .  S
C2410      C2411   1.403   1_655  A
C2411      C2412   1.396       .  A
C2411      H2424   1.082       .  S
C2412      C2414   1.445       .  S
C2413      N2417   1.157       .  T
C2414      N2418   1.157       .  T
C2415      N2420   1.157       .  T
C2416      N2419   1.157       .  T
C2425      C2426   1.409       .  A
C2425      C2430   1.398       .  A
C2425      C2439   1.445       .  S
C2426      C2427   1.404       .  A
C2426      C2431   1.489       .  S
C2427      C2428   1.410       .  A
C2427      H2446   1.084       .  S
C2428      C2429   1.419       .  A
C2428      C2440   1.444   1_655  S
C2429      C2430   1.406       .  A
C2430      H2445   1.085       .  S
C2431      C2432   1.401       .  A
C2431      C2436   1.411       .  A
C2432      C2433   1.400       .  A
C2432      H2447   1.085       .  S
C2433      C2434   1.415       .  A
C2433      C2437   1.445       .  S
C2434      C2435   1.404       .  A
C2435      C2436   1.407       .  A
C2435      H2448   1.084       .  S
C2436      C2438   1.443       .  S
C2437      N2441   1.157       .  T
C2438      N2442   1.157       .  T
C2439      N2444   1.157       .  T
C2440      N2443   1.158       .  T
C2449      C2450   1.414       .  A
C2449      C2454   1.402       .  A
C2449      C2463   1.445       .  S
C2450      C2451   1.407       .  A
C2450      C2455   1.497       .  S
C2451      C2452   1.405       .  A
C2451      H2470   1.085       .  S
C2452      C2453   1.413       .  A
C2452      C2464   1.442       .  S
C2453      C2454   1.407       .  A
C2454      H2469   1.085       .  S
C2455      C2456   1.406       .  A
C2455      C2460   1.413       .  A
C2456      C2457   1.401       .  A
C2456      H2471   1.085       .  S
C2457      C2458   1.413       .  A
C2457      C2461   1.445       .  S
C2458      C2459   1.408       .  A
C2459      C2460   1.404       .  A
C2459      H2472   1.085       .  S
C2460      C2462   1.443       .  S
C2461      N2465   1.157       .  T
C2462      N2466   1.157       .  T
C2463      N2468   1.158       .  T
C2464      N2467   1.157       .  T
C2473      C2474   1.414       .  A
C2473      C2478   1.408       .  A
C2473      C2487   1.444       .  S
C2474      C2475   1.402       .  A
C2474      C2479   1.500       .  S
C2475      C2476   1.402       .  A
C2475      H2494   1.085       .  S
C2476      C2477   1.419       .  A
C2476      C2488   1.443       .  S
C2477      C2478   1.408       .  A
C2478      H2493   1.082       .  S
C2479      C2480   1.409       .  A
C2479      C2484   1.416   1_655  A
C2480      C2481   1.403       .  A
C2480      H2495   1.084       .  S
C2481      C2482   1.406   1_655  A
C2481      C2485   1.442       .  S
C2482      C2483   1.400       .  A
C2483      C2484   1.403       .  A
C2483      H2496   1.083       .  S
C2484      C2486   1.444       .  S
C2485      N2489   1.157       .  T
C2486      N2490   1.157       .  T
C2487      N2492   1.157   1_655  T
C2488      N2491   1.157       .  T
C2497      C2498   1.411       .  A
C2497      C2502   1.399       .  A
C2497      C2511   1.444       .  S
C2498      C2499   1.403       .  A
C2498      C2503   1.491       .  S
C2499      C2500   1.408       .  A
C2499      H2518   1.084       .  S
C2500      C2501   1.419       .  A
C2500      C2512   1.444       .  S
C2501      C2502   1.405       .  A
C2502      H2517   1.085       .  S
C2503      C2504   1.407       .  A
C2503      C2508   1.412       .  A
C2504      C2505   1.409       .  A
C2504      H2519   1.084       .  S
C2505      C2506   1.409       .  A
C2505      C2509   1.443       .  S
C2506      C2507   1.402       .  A
C2507      C2508   1.398       .  A
C2507      H2520   1.085       .  S
C2508      C2510   1.445       .  S
C2509      N2513   1.157       .  T
C2510      N2514   1.157       .  T
C2511      N2516   1.157       .  T
C2512      N2515   1.157       .  T
C2521      C2522   1.416       .  A
C2521      C2526   1.408       .  A
C2521      C2535   1.443       .  S
C2522      C2523   1.405       .  A
C2522      C2527   1.502       .  S
C2523      C2524   1.403       .  A
C2523      H2542   1.084       .  S
C2524      C2525   1.415       .  A
C2524      C2536   1.445       .  S
C2525      C2526   1.405       .  A
C2526      H2541   1.084       .  S
C2527      C2528   1.406       .  A
C2527      C2532   1.415       .  A
C2528      C2529   1.403       .  A
C2528      H2543   1.084       .  S
C2529      C2530   1.414       .  A
C2529      C2533   1.444       .  S
C2530      C2531   1.408       .  A
C2531      C2532   1.409       .  A
C2531      H2544   1.085       .  S
C2532      C2534   1.444       .  S
C2533      N2537   1.157       .  T
C2534      N2538   1.157       .  T
C2535      N2540   1.157       .  T
C2536      N2539   1.157       .  T
C2545      C2546   1.417       .  A
C2545      C2550   1.405       .  A
C2545      C2559   1.445       .  S
C2546      C2547   1.405       .  A
C2546      C2551   1.503       .  S
C2547      C2548   1.405       .  A
C2547      H2566   1.084       .  S
C2548      C2549   1.417       .  A
C2548      C2560   1.444       .  S
C2549      C2550   1.405       .  A
C2550      H2565   1.085       .  S
C2551      C2552   1.404       .  A
C2551      C2556   1.419       .  A
C2552      C2553   1.396       .  A
C2552      H2567   1.084       .  S
C2553      C2554   1.415       .  A
C2553      C2557   1.446       .  S
C2554      C2555   1.403       .  A
C2555      C2556   1.410       .  A
C2555      H2568   1.084       .  S
C2556      C2558   1.442       .  S
C2557      N2561   1.157       .  T
C2558      N2562   1.157       .  T
C2559      N2564   1.157       .  T
C2560      N2563   1.157       .  T
C2569      C2570   1.408       .  A
C2569      C2574   1.399       .  A
C2569      C2583   1.444   1_545  S
C2570      C2571   1.401       .  A
C2570      C2575   1.486   1_545  S
C2571      C2572   1.407       .  A
C2571      H2590   1.085       .  S
C2572      C2573   1.420       .  A
C2572      C2584   1.443       .  S
C2573      C2574   1.407       .  A
C2574      H2589   1.083       .  S
C2575      C2576   1.402       .  A
C2575      C2580   1.408       .  A
C2576      C2577   1.402       .  A
C2576      H2591   1.085       .  S
C2577      C2578   1.414       .  A
C2577      C2581   1.443       .  S
C2578      C2579   1.407       .  A
C2579      C2580   1.403       .  A
C2579      H2592   1.085       .  S
C2580      C2582   1.444       .  S
C2581      N2585   1.157       .  T
C2582      N2586   1.157       .  T
C2583      N2588   1.157       .  T
C2584      N2587   1.157       .  T
C2593      C2594   1.409       .  A
C2593      C2598   1.398       .  A
C2593      C2607   1.444       .  S
C2594      C2595   1.409       .  A
C2594      C2599   1.500       .  S
C2595      C2596   1.411       .  A
C2595      H2614   1.084       .  S
C2596      C2597   1.416       .  A
C2596      C2608   1.441       .  S
C2597      C2598   1.411       .  A
C2598      H2613   1.084       .  S
C2599      C2600   1.410       .  A
C2599      C2604   1.412       .  A
C2600      C2601   1.405       .  A
C2600      H2615   1.084       .  S
C2601      C2602   1.406       .  A
C2601      C2605   1.441       .  S
C2602      C2603   1.405       .  A
C2603      C2604   1.404       .  A
C2603      H2616   1.084       .  S
C2604      C2606   1.443       .  S
C2605      N2609   1.157       .  T
C2606      N2610   1.157       .  T
C2607      N2612   1.157       .  T
C2608      N2611   1.158       .  T
C2617      C2618   1.414       .  A
C2617      C2622   1.398       .  A
C2617      C2631   1.445       .  S
C2618      C2619   1.409   1_455  A
C2618      C2623   1.495       .  S
C2619      C2620   1.407       .  A
C2619      H2638   1.084       .  S
C2620      C2621   1.407       .  A
C2620      C2632   1.443       .  S
C2621      C2622   1.402   1_655  A
C2622      H2637   1.085       .  S
C2623      C2624   1.405       .  A
C2623      C2628   1.414       .  A
C2624      C2625   1.401       .  A
C2624      H2639   1.085       .  S
C2625      C2626   1.410       .  A
C2625      C2629   1.443       .  S
C2626      C2627   1.404       .  A
C2627      C2628   1.407       .  A
C2627      H2640   1.084       .  S
C2628      C2630   1.443       .  S
C2629      N2633   1.157       .  T
C2630      N2634   1.157       .  T
C2631      N2636   1.157       .  T
C2632      N2635   1.157       .  T
C2641      C2642   1.411       .  A
C2641      C2646   1.400       .  A
C2641      C2655   1.444       .  S
C2642      C2643   1.404       .  A
C2642      C2647   1.484       .  S
C2643      C2644   1.400       .  A
C2643      H2662   1.085       .  S
C2644      C2645   1.409       .  A
C2644      C2656   1.444       .  S
C2645      C2646   1.402       .  A
C2646      H2661   1.085       .  S
C2647      C2648   1.400       .  A
C2647      C2652   1.409       .  A
C2648      C2649   1.406   1_545  A
C2648      H2663   1.085   1_545  S
C2649      C2650   1.421   1_565  A
C2649      C2653   1.444       .  S
C2650      C2651   1.407       .  A
C2651      C2652   1.398       .  A
C2651      H2664   1.085       .  S
C2652      C2654   1.446       .  S
C2653      N2657   1.158       .  T
C2654      N2658   1.157       .  T
C2655      N2660   1.157       .  T
C2656      N2659   1.157       .  T
C2665      C2666   1.413       .  A
C2665      C2670   1.397       .  A
C2665      C2679   1.445       .  S
C2666      C2667   1.404       .  A
C2666      C2671   1.482       .  S
C2667      C2668   1.402       .  A
C2667      H2686   1.085       .  S
C2668      C2669   1.409       .  A
C2668      C2680   1.443       .  S
C2669      C2670   1.400       .  A
C2670      H2685   1.085       .  S
C2671      C2672   1.399       .  A
C2671      C2676   1.411       .  A
C2672      C2673   1.395       .  A
C2672      H2687   1.085       .  S
C2673      C2674   1.412   1_565  A
C2673      C2677   1.446       .  S
C2674      C2675   1.403       .  A
C2675      C2676   1.404   1_545  A
C2675      H2688   1.084       .  S
C2676      C2678   1.444       .  S
C2677      N2681   1.157   1_565  T
C2678      N2682   1.157       .  T
C2679      N2684   1.157       .  T
C2680      N2683   1.157       .  T
C2689      C2690   1.414       .  A
C2689      C2694   1.406       .  A
C2689      C2703   1.444       .  S
C2690      C2691   1.404       .  A
C2690      C2695   1.493       .  S
C2691      C2692   1.400       .  A
C2691      H2710   1.085       .  S
C2692      C2693   1.410       .  A
C2692      C2704   1.444       .  S
C2693      C2694   1.404       .  A
C2694      H2709   1.084       .  S
C2695      C2696   1.406       .  A
C2695      C2700   1.414       .  A
C2696      C2697   1.406       .  A
C2696      H2711   1.084       .  S
C2697      C2698   1.412       .  A
C2697      C2701   1.443       .  S
C2698      C2699   1.404       .  A
C2699      C2700   1.398       .  A
C2699      H2712   1.085       .  S
C2700      C2702   1.445       .  S
C2701      N2705   1.157       .  T
C2702      N2706   1.157       .  T
C2703      N2708   1.157       .  T
C2704      N2707   1.157       .  T
C2713      C2714   1.413       .  A
C2713      C2718   1.399       .  A
C2713      C2727   1.445       .  S
C2714      C2715   1.407       .  A
C2714      C2719   1.496       .  S
C2715      C2716   1.408       .  A
C2715      H2734   1.084       .  S
C2716      C2717   1.410       .  A
C2716      C2728   1.441       .  S
C2717      C2718   1.404       .  A
C2718      H2733   1.084       .  S
C2719      C2720   1.405       .  A
C2719      C2724   1.412       .  A
C2720      C2721   1.409       .  A
C2720      H2735   1.084       .  S
C2721      C2722   1.414       .  A
C2721      C2725   1.439       .  S
C2722      C2723   1.406       .  A
C2723      C2724   1.400       .  A
C2723      H2736   1.084       .  S
C2724      C2726   1.445       .  S
C2725      N2729   1.157       .  T
C2726      N2730   1.157       .  T
C2727      N2732   1.157       .  T
C2728      N2731   1.157       .  T
