geometry optimzed in LAMMPS
_audit_creation_date              2020-11-30 
_audit_creation_method            'lammps2cif' 
_symmetry_space_group_name_H-M    'P1' 
_symmetry_Int_Tables_number       1 
_symmetry_cell_setting            triclinic 
loop_ 
_symmetry_equiv_pos_as_xyz 
  x,y,z 
_cell_length_a                    29.76506295 
_cell_length_b                    29.796000538930656 
_cell_length_c                    20.292811241859386 
_cell_angle_alpha                 91.27618785872758 
_cell_angle_beta                  87.74537050954052 
_cell_angle_gamma                 116.90065954922697 
loop_ 
_atom_site_label 
_atom_site_type_symbol 
_atom_site_fract_x 
_atom_site_fract_y 
_atom_site_fract_z 
_atom_site_charge 
C1          C  0.65113660  0.34563858  0.97970838     0.30300
C2          C  0.64993205  0.34645366  0.32373053     0.30300
C3          C  0.69350565  0.34168403  0.93470091    -0.05900
C4          C  0.60535784  0.30446913  0.93988067    -0.06700
C5          C  0.65336074  0.39242970  0.94054033    -0.06600
C6          C  0.69269018  0.34207794  0.36250769    -0.05900
C7          C  0.60446507  0.30482887  0.36572256    -0.06700
C8          C  0.65270434  0.39322322  0.36708317    -0.06600
C9          C  0.73492163  0.33808505  0.34140620    -0.31900
N10         N  0.75821852  0.33251273  0.39447503     0.14600
C11         C  0.73505102  0.33633588  0.94976976    -0.32000
H12         H  0.74708237  0.33436729  0.99869305     0.16500
C13         C  0.55478655  0.27651459  0.34932044    -0.30900
N14         N  0.52522214  0.26103020  0.40482913     0.13300
C15         C  0.55565461  0.27535030  0.95977311    -0.30900
C16         C  0.66527838  0.44260395  0.35098392    -0.31200
N17         N  0.67461940  0.47103038  0.90748982     0.13800
H18         H  0.67107833  0.45743235  0.30153103     0.16400
C19         C  0.66615196  0.44096608  0.96076933    -0.31200
H20         H  0.67162415  0.45394474  0.01129671     0.16400
H21         H  0.54096291  0.26927546  0.01001884     0.16400
H22         H  0.74638493  0.33634271  0.29059317     0.16500
H23         H  0.54029783  0.27150244  0.30038526     0.16400
C24         C  0.65095022  0.34489614  0.22962859     0.30300
C25         C  0.65309633  0.34467811  0.07365630     0.30300
C26         C  0.65542211  0.30081762  0.18779992    -0.05900
C27         C  0.60638178  0.34479097  0.18910255    -0.06700
C28         C  0.69369363  0.38870144  0.18782053    -0.06600
C29         C  0.65712289  0.30084882  0.11423511    -0.05900
C30         C  0.60789263  0.34505137  0.11633290    -0.06700
C31         C  0.69477823  0.38877546  0.11466575    -0.06600
C32         C  0.67943093  0.26980717  0.09668762    -0.31900
N33         N  0.68954777  0.25063811  0.15134861     0.14600
C34         C  0.67441870  0.26826046  0.20573250    -0.32000
H35         H  0.68094104  0.26122469  0.25559510     0.16500
C36         C  0.56418592  0.34518693  0.09823004    -0.30900
N37         N  0.53511649  0.34174518  0.15282252     0.13300
C38         C  0.56079913  0.34349409  0.20750405    -0.30900
C39         C  0.73349561  0.43435344  0.09648178    -0.31200
N40         N  0.75433340  0.46148166  0.15146621     0.13800
H41         H  0.74408048  0.44812647  0.04656643     0.16400
C42         C  0.73151892  0.43412841  0.20623554    -0.31200
H43         H  0.74058719  0.44721255  0.25634532     0.16400
H44         H  0.54618362  0.34209269  0.25740060     0.16400
H45         H  0.68973553  0.26324101  0.04714358     0.16500
H46         H  0.55320782  0.34535179  0.04821731     0.16400
N47         N  0.10058849  0.10875956  0.41422607    -0.05800
N48         N  0.14230175  0.15181752  0.42222863    -0.57900
N49         N  0.10735846  0.10663739  0.27509001    -0.05500
N50         N  0.15283917  0.14618573  0.27688596    -0.60100
N51         N  0.07349374  0.12310172  0.26899426    -0.05100
N52         N  0.09518708  0.17217748  0.25935431    -0.57900
N53         N  0.11268694  0.07144543  0.41164094    -0.04800
N54         N  0.16072568  0.08739102  0.42083770    -0.60400
C55         C  0.17936370  0.13741607  0.42830372     0.96400
C56         C  0.14474805  0.18612146  0.26216797     0.96100
N57         N  0.02116313  0.92009219  0.24416146    -0.06000
N58         N  0.02925924  0.88778132  0.20612024    -0.58500
N59         N  0.06838569  0.94414952  0.35812495    -0.04100
N60         N  0.10471359  0.93015030  0.35504279    -0.59800
N61         N  0.02367659  0.90387158  0.36257367    -0.06000
N62         N  0.02956972  0.86269713  0.36427292    -0.58800
N63         N  0.06475870  0.96118623  0.24976075    -0.03800
N64         N  0.10029723  0.95686556  0.21342702    -0.59900
Mn65       Mn  0.07601327  0.02275608  0.32485311     1.18400
C66         C  0.07227899  0.91896371  0.17277692     0.98400
C67         C  0.07975668  0.87964967  0.36079041     0.99100
N68         N  0.95525090  0.09509302  0.31563224    -0.06100
N69         N  0.95176667  0.13764415  0.31756086    -0.62400
N70         N  0.90990259  0.03385632  0.42618824    -0.04900
N71         N  0.87460886  0.04150339  0.45851685    -0.63000
N72         N  0.95272935  0.07628065  0.42602588    -0.05600
N73         N  0.94519857  0.11120678  0.45878026    -0.62600
N74         N  0.90988704  0.05571633  0.31339375    -0.04500
N75         N  0.87521064  0.07197926  0.31790129    -0.63300
Mn76       Mn  0.02191067  0.08775711  0.35808321     1.10700
C77         C  0.90193464  0.12258023  0.31820604     0.99700
C78         C  0.91818116  0.09248507  0.99937185     0.99700
N79         N  0.90664575  0.88318797  0.39827401    -0.05600
N80         N  0.88461872  0.83505081  0.41361837    -0.60900
N81         N  0.87867232  0.93581045  0.26193312    -0.04900
N82         N  0.83319515  0.92349082  0.24233889    -0.57700
N83         N  0.88792006  0.89641431  0.26191707    -0.06200
N84         N  0.84443236  0.85544748  0.25028936    -0.60500
N85         N  0.87340274  0.90105331  0.39527413    -0.05200
N86         N  0.82760177  0.86197058  0.40004628    -0.57700
Mn87       Mn  0.95787658  0.90147683  0.31591146     1.20200
Mn88       Mn  0.89354947  0.97909677  0.34920559     1.12100
Cl89       Cl  0.98231941  0.99281190  0.33851012    -0.85700
C90         C  0.83533357  0.82201509  0.41603511     0.96700
C91         C  0.81112658  0.87354685  0.23621272     0.96500
N92         N  0.12556552  0.09581876  0.13703267    -0.05800
N93         N  0.16801351  0.11317105  0.16841344    -0.57900
N94         N  0.08045107  0.14391381  0.03391587    -0.05500
N95         N  0.08914574  0.18498812  0.00127913    -0.60100
N96         N  0.07090316  0.14894684  0.09649936    -0.05100
N97         N  0.07348385  0.19349525  0.10878864    -0.57900
N98         N  0.13417000  0.08849973  0.07519453    -0.04800
N99         N  0.18253483  0.10290529  0.06306482    -0.60400
C100        C  0.20342226  0.11866313  0.12198748     0.96400
C101        C  0.08528384  0.21547759  0.04910872     0.96100
N102        N  0.93886188  0.00686679  0.54489210    -0.06000
N103        N  0.89934000  0.01526446  0.55794419    -0.58500
N104        N  0.06206744  0.98223029  0.98095571    -0.04100
N105        N  0.10152933  0.97285801  0.98477139    -0.59800
N106        N  0.01932355  0.93970250  0.98206656    -0.06000
N107        N  0.03060445  0.90123577  0.98796354    -0.58800
N108        N  0.97982239  0.04960631  0.54549376    -0.03800
N109        N  0.96797920  0.08660325  0.55926801    -0.59900
Mn110      Mn  0.06662035  0.06176723  0.00686508     1.18400
C111        C  0.91734258  0.06596515  0.55451785     0.98400
C112        C  0.08200529  0.92229832  0.98939701     0.99100
N113        N  0.95800307  0.07241218  0.18881718    -0.06100
N114        N  0.94544332  0.10984776  0.18345913    -0.62400
N115        N  0.99738563  0.95972632  0.13017866    -0.04900
N116        N  0.00801302  0.92254969  0.11304537    -0.63000
N117        N  0.03911845  0.00149736  0.13315930    -0.05600
N118        N  0.07795143  0.99231249  0.11920563    -0.62600
N119        N  0.91653795  0.02880231  0.18901455    -0.04500
N120        N  0.87602772  0.03641536  0.18500317    -0.63300
Mn121      Mn  0.04088014  0.07766054  0.16304140     1.10700
C122        C  0.89425616  0.08697169  0.18149234     0.99700
C123        C  0.05841108  0.94135092  0.11749119     0.99700
N124        N  0.91733673  0.86995264  0.06640348    -0.05600
N125        N  0.91755251  0.82647563  0.05350546    -0.60900
N126        N  0.85110793  0.92592820  0.09021054    -0.04900
N127        N  0.80392924  0.91661459  0.10215891    -0.57700
N128        N  0.86025128  0.92332666  0.02696844    -0.06200
N129        N  0.81913293  0.91397006  0.99485171    -0.60500
N130        N  0.90575801  0.87265845  0.12883443    -0.05200
N131        N  0.89986024  0.83209289  0.16051445    -0.57700
Mn132      Mn  0.93831673  0.93340245  0.99632891     1.20200
Mn133      Mn  0.91735549  0.95114413  0.16079950     1.10100
Cl134      Cl  0.98838904  0.00257833  0.07820587    -0.85700
C135        C  0.90655598  0.80346604  0.11264488     0.96700
C136        C  0.78376369  0.90785286  0.04220298     0.96500
C137        C  0.33398842  0.66395724  0.18490370     0.30300
C138        C  0.33389060  0.66330034  0.34081929     0.30300
C139        C  0.29115842  0.66724337  0.22917602    -0.05900
C140        C  0.33090431  0.61647584  0.22435413    -0.06700
C141        C  0.37990112  0.70506353  0.22539082    -0.06600
C142        C  0.29103891  0.66707000  0.30186094    -0.05900
C143        C  0.33092838  0.61598774  0.29781060    -0.06700
C144        C  0.37966568  0.70438523  0.29867432    -0.06600
C145        C  0.24703026  0.66766137  0.32254855    -0.31900
N146        N  0.22228021  0.67002839  0.26918206     0.14600
C147        C  0.24732649  0.66766818  0.21319434    -0.32000
H148        H  0.23549974  0.66931489  0.16401825     0.16500
C149        C  0.31654527  0.56611351  0.31413935    -0.30900
N150        N  0.30729309  0.53708104  0.25850589     0.13300
C151        C  0.31613458  0.56711146  0.20487012    -0.30900
C152        C  0.42966784  0.73080248  0.31511992    -0.31200
N153        N  0.45965771  0.74646111  0.26005078     0.13800
H154        H  0.44392504  0.73649707  0.36415646     0.16400
C155        C  0.43035622  0.73295147  0.20644447    -0.31200
H156        H  0.44541816  0.74029823  0.15650140     0.16400
H157        H  0.30984136  0.55364633  0.15453555     0.16400
H158        H  0.23548940  0.67021767  0.37313123     0.16500
H159        H  0.31012972  0.55135889  0.36369848     0.16400
C160        C  0.33258420  0.66626810  0.43495486     0.30300
C161        C  0.33015800  0.66606432  0.59101627     0.30300
C162        C  0.32742452  0.71032735  0.47699792    -0.05900
C163        C  0.29000412  0.62293871  0.47647907    -0.06700
C164        C  0.37683967  0.66612396  0.47562636    -0.06600
C165        C  0.32581391  0.71005178  0.55079171    -0.05900
C166        C  0.28878101  0.62248475  0.54959940    -0.06700
C167        C  0.37543052  0.66608255  0.54835170    -0.06600
C168        C  0.30182718  0.73958514  0.56889473    -0.31900
N169        N  0.29051529  0.75835616  0.51472132     0.14600
C170        C  0.30594762  0.74127037  0.45989078    -0.32000
H171        H  0.29807734  0.74742632  0.41027229     0.16500
C172        C  0.24903499  0.57785141  0.56734003    -0.30900
N173        N  0.22758737  0.55199225  0.51189980     0.13300
C174        C  0.25103884  0.57908161  0.45742032    -0.30900
C175        C  0.41946593  0.66679003  0.56640729    -0.31200
N176        N  0.44829900  0.66998115  0.51165980     0.13800
H177        H  0.43109368  0.66806020  0.61640997     0.16400
C178        C  0.42211496  0.66695754  0.45715582    -0.31200
H179        H  0.43634238  0.66721272  0.40733679     0.16400
H180        H  0.24167061  0.56675682  0.40710861     0.16400
H181        H  0.29053709  0.74463508  0.61864793     0.16500
H182        H  0.23812892  0.56374578  0.61709083     0.16400
C183        C  0.14982188  0.42883675  0.54814139     0.30100
C184        C  0.12510667  0.38791774  0.58993227    -0.36300
C185        C  0.10986285  0.34105013  0.56016176     0.16000
C186        C  0.11876598  0.33461702  0.49403759     0.21900
C187        C  0.14328736  0.37564272  0.45202597    -0.34400
C188        C  0.15802706  0.42267143  0.48172196     0.15900
O189        O  0.17115672  0.47602202  0.56674668    -0.26400
C190        C  0.19266099  0.50025909  0.51144493     0.05700
C191        C  0.18569650  0.46916818  0.45675455    -0.31300
O192        O  0.09459468  0.29581412  0.08975714    -0.23100
C193        C  0.09386448  0.26664149  0.03915473    -0.03100
C194        C  0.10619710  0.29086476  0.97879140    -0.17600
H195        H  0.11987488  0.39235384  0.64234354     0.20400
H196        H  0.15189063  0.37130458  0.40064145     0.18800
H197        H  0.20197269  0.47882383  0.40734932     0.18700
H198        H  0.07850926  0.28562230  0.63904415     0.14600
C199        C  0.57475108  0.74561330  0.48656770     0.30100
C200        C  0.61603703  0.78550440  0.45596162    -0.36300
C201        C  0.65734814  0.81187830  0.49561796     0.16000
C202        C  0.66266902  0.80841110  0.05234247     0.21900
C203        C  0.62252079  0.76655769  0.08138588    -0.34400
C204        C  0.57589896  0.73298457  0.55133282     0.15900
O205        O  0.52988682  0.72059210  0.46188201    -0.26400
C206        C  0.50203308  0.69158069  0.51139368     0.05700
C207        C  0.52896782  0.69720716  0.56806495    -0.31300
O208        O  0.70566611  0.83726611  0.07975548    -0.23100
C209        C  0.73117237  0.87140917  0.03392373    -0.03100
C210        C  0.70192367  0.85274002  0.48228885    -0.17600
H211        H  0.61506322  0.79676729  0.40594438     0.20400
H212        H  0.62399394  0.75453284  0.13076182     0.18800
H213        H  0.52090250  0.68591438  0.10670859     0.18700
H214        H  0.71566066  0.87236332  0.43591867     0.14600
C215        C  0.17639220  0.87915751  0.98954726     0.30100
C216        C  0.22316896  0.87991546  0.97152656    -0.36300
C217        C  0.19401591  0.80024325  0.52428225     0.16000
C218        C  0.23641577  0.84107421  0.50005068     0.21900
C219        C  0.23463127  0.88641300  0.48504639    -0.34400
C220        C  0.18769517  0.88724107  0.49529492     0.15900
O221        O  0.16121764  0.91313698  0.97383978    -0.26400
C222        C  0.11391102  0.89527281  0.99848452     0.05700
C223        C  0.17307794  0.92411052  0.48488045    -0.31300
O224        O  0.27620325  0.83186983  0.49332767    -0.23100
C225        C  0.25942638  0.78467089  0.51468779    -0.03100
C226        C  0.20852623  0.76323205  0.53462629    -0.17600
H227        H  0.25136072  0.91000631  0.94198375     0.20400
H228        H  0.26760086  0.91884726  0.46627362     0.18800
H229        H  0.19613032  0.96160337  0.46593580     0.18700
H230        H  0.30530453  0.84919906  0.95344664     0.14600
C231        C  0.26320782  0.40784123  0.28722797     0.30100
C232        C  0.25238657  0.36399174  0.32362903    -0.36300
C233        C  0.22748841  0.31752876  0.29013921     0.16000
C234        C  0.21331548  0.31451769  0.22565895     0.21900
C235        C  0.22447816  0.35816825  0.18918574    -0.34400
C236        C  0.24998618  0.40447941  0.22224906     0.15900
O237        O  0.28519335  0.45511366  0.30895230    -0.26400
C238        C  0.28661749  0.48250590  0.25684766     0.05700
C239        C  0.26501359  0.45271192  0.20163540    -0.31300
O240        O  0.18564361  0.26760717  0.20610335    -0.23100
C241        C  0.18284756  0.23961289  0.25791798    -0.03100
C242        C  0.20837135  0.26874351  0.31171024    -0.17600
H243        H  0.26176282  0.36589747  0.37493892     0.20400
H244        H  0.21282283  0.35610721  0.13887843     0.18800
H245        H  0.26007681  0.46457759  0.15358947     0.18700
H246        H  0.20866562  0.25610512  0.36121044     0.14600
C247        C  0.67796303  0.79900885  0.25617580     0.30100
C248        C  0.63093369  0.75876570  0.27519298    -0.36300
C249        C  0.58761026  0.76614269  0.26659827     0.16000
C250        C  0.59043868  0.80982568  0.24046777     0.21900
C251        C  0.63700261  0.84992955  0.22301467    -0.34400
C252        C  0.67970550  0.84266773  0.23209625     0.15900
O253        O  0.72382954  0.80140132  0.25942202    -0.26400
C254        C  0.75481829  0.84736860  0.23657500     0.05700
C255        C  0.72881900  0.87425643  0.22029795    -0.31300
O256        O  0.54584158  0.80874434  0.23447917    -0.23100
C257        C  0.51355220  0.76404453  0.25821141    -0.03100
C258        C  0.53722542  0.73586428  0.27920186    -0.17600
H259        H  0.62820461  0.72422644  0.29518150     0.20400
H260        H  0.63982344  0.88456428  0.20317245     0.18800
H261        H  0.74413619  0.91271838  0.20336904     0.18700
H262        H  0.51969226  0.69830523  0.29957916     0.14600
C263        C  0.14613263  0.72427039  0.31340104     0.30100
C264        C  0.10896406  0.73104532  0.35013978    -0.36300
C265        C  0.11196485  0.77913055  0.34700369     0.16000
C266        C  0.14970719  0.81813480  0.31187512     0.21900
C267        C  0.18638558  0.81120900  0.27471754    -0.34400
C268        C  0.18231006  0.76282441  0.27595955     0.15900
O269        O  0.15309678  0.68371720  0.31241537    -0.26400
C270        C  0.19293878  0.69638288  0.27183354     0.05700
C271        C  0.21248852  0.74487801  0.24752738    -0.31300
O272        O  0.14473501  0.85963940  0.31473119    -0.23100
C273        C  0.10289189  0.84660900  0.35110852    -0.03100
C274        C  0.08077343  0.79721773  0.37273416    -0.17600
H275        H  0.07990189  0.70111387  0.37897770     0.20400
H276        H  0.21568772  0.84125363  0.24628137     0.18800
H277        H  0.24705865  0.76543549  0.21881909     0.18700
H278        H  0.04611323  0.77737886  0.40155558     0.14600
C279        C  0.80051825  0.12958157  0.18443814     0.30100
C280        C  0.75442770  0.12948351  0.20382162    -0.36300
C281        C  0.74604019  0.16912737  0.18013417     0.16000
C282        C  0.78030873  0.20603088  0.13903876     0.21900
C283        C  0.82699044  0.20676472  0.12091022    -0.34400
C284        C  0.83574728  0.16754514  0.14562029     0.15900
O285        O  0.81585172  0.09602567  0.20089309    -0.26400
C286        C  0.86212144  0.11303781  0.17348506     0.05700
C287        C  0.87652855  0.15765187  0.13877391    -0.31300
O288        O  0.76431360  0.23900372  0.12171594    -0.23100
C289        C  0.71935949  0.22332119  0.15277135    -0.03100
C290        C  0.70640674  0.18035718  0.19043861    -0.17600
H291        H  0.72698295  0.10050329  0.23548939     0.20400
H292        H  0.85469115  0.23603443  0.08983068     0.18800
H293        H  0.91176400  0.17934965  0.11195929     0.18700
H294        H  0.67268353  0.16038218  0.22089522     0.14600
C295        C  0.83417171  0.58517392  0.11359544     0.30100
C296        C  0.86027634  0.62595971  0.07134542    -0.36300
C297        C  0.87508512  0.67354799  0.09962147     0.16000
C298        C  0.86505799  0.68057293  0.16507393     0.21900
C299        C  0.83992793  0.63981585  0.20772229    -0.34400
C300        C  0.82489442  0.59217764  0.17933095     0.15900
O301        O  0.81216522  0.53755674  0.09582132    -0.26400
C302        C  0.78904641  0.51379980  0.15101940     0.05700
C303        C  0.79568642  0.54580439  0.20472986    -0.31300
O304        O  0.87711393  0.72785510  0.17908306    -0.23100
C305        C  0.89508718  0.75112987  0.12194404    -0.03100
C306        C  0.89531540  0.71950009  0.07092159    -0.17600
H307        H  0.86613146  0.62087238  0.01928654     0.20400
H308        H  0.83055404  0.64481013  0.25852434     0.18800
H309        H  0.77851365  0.53676981  0.25376508     0.18700
H310        H  0.90537908  0.72851164  0.01934709     0.14600
C311        C  0.32272813  0.22069831  0.10721709     0.30100
C312        C  0.36447250  0.25917641  0.07517482    -0.36300
C313        C  0.40673719  0.28521972  0.11358661     0.16000
C314        C  0.40722078  0.27519247  0.17947844     0.21900
C315        C  0.36473242  0.23846122  0.21208357    -0.34400
C316        C  0.32317929  0.21117584  0.17327297     0.15900
O317        O  0.28094134  0.18858688  0.07961136    -0.26400
C318        C  0.25480680  0.15799237  0.12862836     0.05700
C319        C  0.27883080  0.17055565  0.18816773    -0.31300
O320        O  0.45249181  0.29824700  0.20361402    -0.23100
C321        C  0.48158428  0.32346080  0.15251786    -0.03100
C322        C  0.45491455  0.31741160  0.09528520    -0.17600
H323        H  0.36504492  0.26652742  0.02331498     0.20400
H324        H  0.36528164  0.23004559  0.26307026     0.18800
H325        H  0.26557718  0.15197979  0.23509080     0.18700
H326        H  0.46943836  0.33002154  0.04584166     0.14600
C327        C  0.86811804  0.21915447  0.32631868     0.30100
C328        C  0.86509638  0.26172231  0.30432654    -0.36300
C329        C  0.83840946  0.27959470  0.34621442     0.16000
C330        C  0.81686316  0.25751469  0.40605990     0.21900
C331        C  0.81970402  0.21473096  0.42788569    -0.34400
C332        C  0.84544783  0.19621924  0.38529637     0.15900
O333        O  0.89048131  0.19568955  0.29449322    -0.26400
C334        C  0.88071085  0.15670906  0.33275500     0.05700
C335        C  0.85286172  0.15474745  0.38985584    -0.31300
O336        O  0.78926344  0.27713194  0.43390884    -0.23100
C337        C  0.79291977  0.31180407  0.39116327    -0.03100
C338        C  0.82330572  0.31537862  0.33585937    -0.17600
H339        H  0.88080567  0.27852242  0.25684391     0.20400
H340        H  0.80107367  0.19584448  0.47321393     0.18800
H341        H  0.84111960  0.12762310  0.42943801     0.18700
H342        H  0.82946873  0.33764457  0.29194399     0.14600
C343        C  0.72374216  0.60068276  0.37719519     0.30100
C344        C  0.74374893  0.64521993  0.33951947    -0.36300
C345        C  0.76217027  0.69100569  0.37511125     0.16000
C346        C  0.76142610  0.69281680  0.44309543     0.21900
C347        C  0.74157689  0.64843534  0.48064077    -0.34400
C348        C  0.72278618  0.60278373  0.44518255     0.15900
O349        O  0.70548854  0.55382486  0.35440643    -0.26400
C350        C  0.69244855  0.52545973  0.40864242     0.05700
C351        C  0.70768023  0.55366527  0.96797484    -0.31300
O352        O  0.78370337  0.73939620  0.46638965    -0.23100
C353        C  0.79792885  0.76832490  0.41287897    -0.03100
C354        C  0.78608588  0.74008977  0.35460300    -0.17600
H355        H  0.74542319  0.64427855  0.28616494     0.20400
H356        H  0.74988183  0.64842742  0.03618381     0.18800
H357        H  0.70359123  0.54075536  0.01827343     0.18700
H358        H  0.79683912  0.75363333  0.30457967     0.14600
C359        C  0.39613863  0.20608602  0.38458737     0.30100
C360        C  0.34976708  0.17063917  0.36151076    -0.36300
C361        C  0.30774461  0.17710252  0.38255030     0.16000
C362        C  0.30999932  0.21466501  0.42529173     0.21900
C363        C  0.35672371  0.25038714  0.44873376    -0.34400
C364        C  0.39932468  0.24445922  0.42668065     0.15900
O365        O  0.44114516  0.19936386  0.93655028    -0.26400
C366        C  0.47190544  0.24503494  0.40673319     0.05700
C367        C  0.44889390  0.27019351  0.44196858    -0.31300
O368        O  0.26451352  0.20914172  0.44427021    -0.23100
C369        C  0.23331810  0.16805951  0.41174969    -0.03100
C370        C  0.25857450  0.14733206  0.37253181    -0.17600
H371        H  0.34805294  0.12517500  0.97301466     0.20400
H372        H  0.35951732  0.27941326  0.48371604     0.18800
H373        H  0.46633999  0.30289116  0.47356558     0.18700
H374        H  0.24264058  0.11214466  0.34535784     0.14600
C375        C  0.64964141  0.34513750  0.47961360     0.30300
C376        C  0.64993484  0.34621043  0.82383128     0.30300
C377        C  0.69233550  0.34105541  0.43532250    -0.05900
C378        C  0.60425292  0.30428283  0.43902401    -0.06700
C379        C  0.65243435  0.39242498  0.44033985    -0.06600
C380        C  0.69296788  0.34181420  0.86184381    -0.05900
C381        C  0.60500058  0.30485480  0.86659590    -0.06700
C382        C  0.65302818  0.39309260  0.86728889    -0.06600
C383        C  0.73428587  0.33627320  0.84018942    -0.31900
N384        N  0.75806179  0.33144390  0.89313288     0.14600
C385        C  0.73369658  0.33526536  0.45087307    -0.32000
H386        H  0.74447618  0.33141055  0.49988023     0.16500
C387        C  0.55543771  0.27620375  0.85075544    -0.30900
N388        N  0.52626870  0.26023069  0.90640274     0.13300
C389        C  0.55441713  0.27587922  0.45832445    -0.30900
C390        C  0.66615742  0.44261997  0.85146883    -0.31200
N391        N  0.67282287  0.47110149  0.40681439     0.13800
H392        H  0.67181448  0.45760619  0.80213094     0.16400
C393        C  0.66434671  0.44105085  0.46029805    -0.31200
H394        H  0.66913138  0.45413460  0.51082107     0.16400
H395        H  0.53953358  0.26880891  0.50838248     0.16400
H396        H  0.74470076  0.33276110  0.78936772     0.16500
H397        H  0.54072851  0.26941063  0.80190719     0.16400
C398        C  0.64991358  0.34424628  0.72973659     0.30300
C399        C  0.65073622  0.34338437  0.57365571     0.30300
C400        C  0.65196505  0.29896388  0.68776721    -0.05900
C401        C  0.60573656  0.34577759  0.68997970    -0.06700
C402        C  0.69321400  0.38683471  0.68697458    -0.06600
C403        C  0.65289923  0.29870423  0.61418429    -0.05900
C404        C  0.60689320  0.34603270  0.61709580    -0.06700
C405        C  0.69347916  0.38608566  0.61382057    -0.06600
C406        C  0.67246338  0.26560546  0.59593876    -0.31900
N407        N  0.68159438  0.24534267  0.65026085     0.14600
C408        C  0.66887683  0.26461189  0.70514135    -0.32000
H409        H  0.67601910  0.25763339  0.75475996     0.16500
C410        C  0.56158825  0.34222219  0.59966207    -0.30900
N411        N  0.53149670  0.33475817  0.65411179     0.13300
C412        C  0.55838116  0.34000125  0.70872397    -0.30900
C413        C  0.73087247  0.43126520  0.59394928    -0.31200
N414        N  0.75183032  0.45952808  0.64789999     0.13800
H415        H  0.73962010  0.44397985  0.54350037     0.16400
C416        C  0.73035554  0.43317306  0.70371838    -0.31200
H417        H  0.73930861  0.44802244  0.75316835     0.16400
H418        H  0.54280058  0.33563760  0.75838550     0.16400
H419        H  0.68224301  0.25886716  0.54613354     0.16500
H420        H  0.54920395  0.34027868  0.54996614     0.16400
N421        N  0.09998145  0.10927231  0.90990967    -0.05800
N422        N  0.14336928  0.15048406  0.92026046    -0.57900
N423        N  0.11638563  0.10953569  0.77643104    -0.05500
N424        N  0.16226759  0.14864177  0.77572683    -0.60100
N425        N  0.08271381  0.12664147  0.77263607    -0.05100
N426        N  0.10472843  0.17512517  0.75975701    -0.57900
N427        N  0.10950348  0.06998410  0.90960654    -0.04800
N428        N  0.15593111  0.08275489  0.92501537    -0.60400
C429        C  0.17732587  0.13271774  0.93114093     0.96400
C430        C  0.15408382  0.18852425  0.76063576     0.96100
N431        N  0.03135391  0.91950378  0.74411919    -0.06000
N432        N  0.03549302  0.88794257  0.70078851    -0.58500
N433        N  0.07318294  0.94455148  0.85531917    -0.04100
N434        N  0.10721230  0.92750910  0.85388984    -0.59800
N435        N  0.02728272  0.90603448  0.85492653    -0.06000
N436        N  0.02965837  0.86300231  0.85649006    -0.58800
N437        N  0.07532663  0.96024428  0.74726594    -0.03800
N438        N  0.10810811  0.95670437  0.70477060    -0.59900
Mn439      Mn  0.08628331  0.02491944  0.81890457     1.18400
C440        C  0.07633258  0.92038169  0.66481166     0.98400
C441        C  0.07935906  0.87703174  0.85688893     0.99100
N442        N  0.96490326  0.10328752  0.80960749    -0.06100
N443        N  0.96026123  0.14512365  0.80758001    -0.62400
N444        N  0.92400416  0.04740421  0.92509737    -0.04900
N445        N  0.88929619  0.05430736  0.95990359    -0.63000
N446        N  0.96853481  0.08754601  0.92943692    -0.05600
N447        N  0.96193887  0.12146617  0.96589439    -0.62600
N448        N  0.91966522  0.06378706  0.81674108    -0.04500
N449        N  0.88447201  0.07925157  0.82129448    -0.63300
Mn450      Mn  0.03022729  0.10502932  0.85553223     1.10700
C451        C  0.91037523  0.12946429  0.81360220     0.99700
C452        C  0.90261082  0.08272561  0.49452638     0.99700
N453        N  0.91300742  0.88063267  0.89767346    -0.05600
N454        N  0.89105442  0.83169044  0.90774885    -0.60900
N455        N  0.87032901  0.93761601  0.76629910    -0.04900
N456        N  0.82314324  0.92529981  0.75580181    -0.57700
N457        N  0.88002532  0.89876111  0.76047096    -0.06200
N458        N  0.83692050  0.85768619  0.74922270    -0.60500
N459        N  0.88014535  0.89884948  0.90052159    -0.05200
N460        N  0.83423647  0.86046739  0.90750508    -0.57700
Mn461      Mn  0.96189374  0.91535906  0.80811348     1.20200
Mn462      Mn  0.90816519  0.98374542  0.85281438     1.12100
Cl463      Cl  0.99851931  0.01227751  0.82871338    -0.85700
C464        C  0.84211020  0.81978227  0.91710998     0.96700
C465        C  0.80252573  0.87586055  0.74407814     0.96500
N466        N  0.11944355  0.10077943  0.63029624    -0.05800
N467        N  0.16186683  0.11702664  0.66087943    -0.57900
N468        N  0.07041324  0.14095445  0.53114072    -0.05500
N469        N  0.07778860  0.18112790  0.49735625    -0.60100
N470        N  0.06071011  0.14658357  0.59358291    -0.05100
N471        N  0.06173994  0.19048607  0.60447305    -0.57900
N472        N  0.12665313  0.08969129  0.56941339    -0.04800
N473        N  0.17397639  0.09878350  0.55769154    -0.60400
C474        C  0.19533338  0.11608379  0.61598032     0.96400
C475        C  0.07261046  0.21148473  0.54429457     0.96100
N476        N  0.94820440  0.00727964  0.04854353    -0.06000
N477        N  0.90982070  0.01908515  0.05558537    -0.58500
N478        N  0.06268988  0.98264673  0.48283166    -0.04100
N479        N  0.10428383  0.97679589  0.48643399    -0.59800
N480        N  0.02217937  0.93841339  0.48579961    -0.06000
N481        N  0.03643631  0.90228685  0.49280537    -0.58800
N482        N  0.98995039  0.04958541  0.05178369    -0.03800
N483        N  0.97973683  0.08800082  0.06364045    -0.59900
Mn484      Mn  0.05806033  0.05965586  0.50374765     1.18400
C485        C  0.92994736  0.07008238  0.05625889     0.98400
C486        C  0.08776801  0.92651571  0.49244210     0.99100
N487        N  0.95063547  0.07006695  0.68677914    -0.06100
N488        N  0.93585515  0.10579957  0.68090239    -0.62400
N489        N  0.99528641  0.96105274  0.63586644    -0.04900
N490        N  0.00693430  0.92492043  0.61686091    -0.63000
N491        N  0.03634419  0.00357094  0.63951233    -0.05600
N492        N  0.07593226  0.99591803  0.62391849    -0.62600
N493        N  0.91034464  0.02564153  0.69112482    -0.04500
N494        N  0.86846853  0.03109832  0.68950590    -0.63300
Mn495      Mn  0.03592296  0.07997067  0.66565379     1.10700
C496        C  0.88465382  0.08116446  0.68311424     0.99700
C497        C  0.05770439  0.94521321  0.61779071     0.99700
N498        N  0.91475245  0.86379425  0.57635163    -0.05600
N499        N  0.91796965  0.82170612  0.56635471    -0.60900
N500        N  0.84604840  0.91930563  0.59754995    -0.04900
N501        N  0.79884258  0.91007625  0.60941580    -0.57700
N502        N  0.85418641  0.91333294  0.53498965    -0.06200
N503        N  0.81300096  0.90250039  0.50285050    -0.60500
N504        N  0.90466792  0.86905845  0.63864880    -0.05200
N505        N  0.90154760  0.83081542  0.67325463    -0.57700
Mn506      Mn  0.93790832  0.93134886  0.50628129     1.20200
Mn507      Mn  0.91432330  0.94907404  0.66594652     1.10100
Cl508      Cl  0.98728080  0.00520054  0.58577227    -0.85700
C509        C  0.90938173  0.80160561  0.62707230     0.96700
C510        C  0.77829672  0.89858988  0.54965307     0.96500
C511        C  0.33154838  0.66384787  0.68501186     0.30300
C512        C  0.33131617  0.66360653  0.84097913     0.30300
C513        C  0.28819490  0.66650644  0.72897344    -0.05900
C514        C  0.32968371  0.61696372  0.72497596    -0.06700
C515        C  0.37641885  0.70581746  0.72549486    -0.06600
C516        C  0.28779734  0.66612999  0.80183181    -0.05900
C517        C  0.32996184  0.61722881  0.79839278    -0.06700
C518        C  0.37605057  0.70556929  0.79870208    -0.06600
C519        C  0.24328504  0.66570474  0.82220361    -0.31900
N520        N  0.21836443  0.66737712  0.76847886     0.14600
C521        C  0.24437750  0.66680970  0.71260037    -0.32000
H522        H  0.23267956  0.66833024  0.66325721     0.16500
C523        C  0.31656317  0.56820158  0.81624019    -0.30900
N524        N  0.30771913  0.53840625  0.76155676     0.13300
C525        C  0.31549203  0.56724542  0.70691674    -0.30900
C526        C  0.42502866  0.73630331  0.81556652    -0.31200
N527        N  0.45468517  0.75372110  0.76053473     0.13800
H528        H  0.43915819  0.74343474  0.86478487     0.16400
C529        C  0.42601114  0.73685966  0.70651112    -0.31200
H530        H  0.44129078  0.74320036  0.65652630     0.16400
H531        H  0.30863782  0.55250582  0.65714969     0.16400
H532        H  0.23107621  0.66699481  0.87281014     0.16500
H533        H  0.31034473  0.55461513  0.86636403     0.16400
C534        C  0.33071583  0.66530020  0.93506158     0.30300
C535        C  0.33155694  0.66591891  0.09092130     0.30300
C536        C  0.32493514  0.70867494  0.97759447    -0.05900
C537        C  0.28942573  0.62098048  0.97802555    -0.06700
C538        C  0.37674029  0.66713581  0.97369089    -0.06600
C539        C  0.32472654  0.70887037  0.05122189    -0.05900
C540        C  0.28992965  0.62157367  0.05105639    -0.06700
C541        C  0.37671511  0.66683128  0.04632949    -0.06600
C542        C  0.30028278  0.73802365  0.07005249    -0.31900
N543        N  0.28732297  0.75584467  0.01626933     0.14600
C544        C  0.30242673  0.73878057  0.96111985    -0.32000
H545        H  0.29389740  0.74458297  0.91169030     0.16500
C546        C  0.24863233  0.57914688  0.07145610    -0.30900
N547        N  0.22417966  0.55266239  0.01781640     0.13300
C548        C  0.24794168  0.57749120  0.96171611    -0.30900
C549        C  0.42229781  0.66961118  0.06200531    -0.31200
N550        N  0.45111675  0.67588641  0.00624587     0.13800
H551        H  0.43480044  0.66963115  0.11114223     0.16400
C552        C  0.42328430  0.67179649  0.95305105    -0.31200
H553        H  0.43716698  0.67415459  0.90265614     0.16400
H554        H  0.23630296  0.56412687  0.91224224     0.16400
H555        H  0.29079115  0.74432629  0.12012872     0.16500
H556        H  0.23809587  0.56769209  0.12218761     0.16400
C557        C  0.14823175  0.42717349  0.99080583     0.30100
C558        C  0.13547876  0.38206140  0.95639197    -0.36300
C559        C  0.11552480  0.33865714  0.99493312     0.16000
C560        C  0.10785147  0.33962047  0.06248227     0.21900
C561        C  0.11931339  0.38444888  0.09659997    -0.34400
C562        C  0.13992667  0.42785577  0.05825116     0.15900
O563        O  0.17578206  0.47238301  0.96676463    -0.26400
C564        C  0.18520332  0.50213884  0.01941999     0.05700
C565        C  0.16306304  0.47659065  0.07757597    -0.31300
O566        O  0.10494326  0.28734181  0.47838376    -0.23100
C567        C  0.08684800  0.26390994  0.53520381    -0.03100
C568        C  0.08861482  0.29512679  0.58757127    -0.17600
H569        H  0.14438371  0.38130701  0.90425915     0.20400
H570        H  0.11614487  0.38578033  0.14986681     0.18800
H571        H  0.16790025  0.49084609  0.12763997     0.18700
H572        H  0.11060018  0.27619122  0.93098534     0.14600
C573        C  0.57688180  0.75770701  0.98079822     0.30100
C574        C  0.61742050  0.79930575  0.95139945    -0.36300
C575        C  0.66020906  0.82370026  0.98947967     0.16000
C576        C  0.65805425  0.79960877  0.56065032     0.21900
C577        C  0.61734471  0.75907457  0.59072245    -0.34400
C578        C  0.57984199  0.74213448  0.04332779     0.15900
O579        O  0.53153934  0.73267337  0.95699917    -0.26400
C580        C  0.50517471  0.70060740  0.00485250     0.05700
C581        C  0.53355003  0.70457279  0.05958719    -0.31300
O582        O  0.69989337  0.83014729  0.58907364    -0.23100
C583        C  0.72609329  0.86239758  0.54179901    -0.03100
C584        C  0.70506128  0.86471658  0.97636659    -0.17600
H585        H  0.61507874  0.81296999  0.90339572     0.20400
H586        H  0.61724428  0.74961499  0.64184406     0.18800
H587        H  0.51496672  0.68156324  0.61653889     0.18700
H588        H  0.71757225  0.88644940  0.93140453     0.14600
C589        C  0.14501599  0.84597453  0.51771906     0.30100
C590        C  0.14689666  0.80083983  0.53342923    -0.36300
C591        C  0.23114700  0.83928709  0.99299182     0.16000
C592        C  0.19591142  0.80079746  0.03110663     0.21900
C593        C  0.14864009  0.79963689  0.04820753    -0.34400
C594        C  0.14019958  0.83982251  0.02537910     0.15900
O595        O  0.10456264  0.85415598  0.52075987    -0.26400
C596        C  0.12142379  0.90172239  0.50091034     0.05700
C597        C  0.09889827  0.84945328  0.03095003    -0.31300
O598        O  0.21146902  0.76677920  0.04617987    -0.23100
C599        C  0.25719433  0.78335487  0.01654743    -0.03100
C600        C  0.27094909  0.82808468  0.98226330    -0.17600
H601        H  0.11371460  0.76818998  0.55124734     0.20400
H602        H  0.12008431  0.76911910  0.07677501     0.18800
H603        H  0.06285545  0.82666153  0.05533089     0.18700
H604        H  0.18542837  0.72556180  0.55294292     0.14600
C605        C  0.25597461  0.40907985  0.72856186     0.30100
C606        C  0.23388677  0.36489077  0.69025589    -0.36300
C607        C  0.22092888  0.31931706  0.72302325     0.16000
C608        C  0.22854604  0.31699100  0.78921566     0.21900
C609        C  0.24999336  0.36116647  0.82781442    -0.34400
C610        C  0.26337786  0.40689827  0.79489914     0.15900
O611        O  0.27095060  0.45571947  0.70786070    -0.26400
C612        C  0.28819408  0.48407830  0.76168310     0.05700
C613        C  0.28414140  0.45553884  0.81740346    -0.31300
O614        O  0.21023675  0.27005278  0.81055064    -0.23100
C615        C  0.19146012  0.24191133  0.75698561    -0.03100
C616        C  0.19654058  0.27072082  0.70153130    -0.17600
H617        H  0.22669722  0.36590062  0.63856321     0.20400
H618        H  0.25513223  0.35993319  0.88013081     0.18800
H619        H  0.29486941  0.46853380  0.86722662     0.18700
H620        H  0.18083852  0.25757981  0.65355282     0.14600
C621        C  0.67582316  0.84480896  0.73273593     0.30100
C622        C  0.63608736  0.85581679  0.71911694    -0.36300
C623        C  0.58782339  0.81963908  0.73842826     0.16000
C624        C  0.57935110  0.77600374  0.77051025     0.21900
C625        C  0.61945033  0.76488824  0.78391798    -0.34400
C626        C  0.66795289  0.80079895  0.76305706     0.15900
O627        O  0.72360940  0.87412260  0.71947602    -0.26400
C628        C  0.74742227  0.84875205  0.73997361     0.05700
C629        C  0.71474288  0.80258588  0.76802532    -0.31300
O630        O  0.53095123  0.74748802  0.78412162    -0.23100
C631        C  0.50849265  0.77307168  0.75958294    -0.03100
C632        C  0.54185666  0.81808366  0.73024708    -0.17600
H633        H  0.64244661  0.89016475  0.69455841     0.20400
H634        H  0.61319002  0.73060209  0.80851824     0.18800
H635        H  0.72411082  0.77602951  0.79204787     0.18700
H636        H  0.53339685  0.84530626  0.70623237     0.14600
C637        C  0.15863199  0.74056262  0.75793349     0.30100
C638        C  0.15855234  0.78551184  0.74029339    -0.36300
C639        C  0.13281563  0.80294932  0.78427239     0.16000
C640        C  0.10711578  0.77687963  0.84023020     0.21900
C641        C  0.10701527  0.73182068  0.85778408    -0.34400
C642        C  0.13422278  0.71519013  0.81494373     0.15900
O643        O  0.18734506  0.72240550  0.73009433    -0.26400
C644        C  0.18181003  0.68553442  0.77005993     0.05700
C645        C  0.14875800  0.67873903  0.82334749    -0.31300
O646        O  0.08560932  0.80022355  0.87419221    -0.23100
C647        C  0.09906490  0.84209613  0.84034052    -0.03100
C648        C  0.12847452  0.84620392  0.78414402    -0.17600
H649        H  0.17965418  0.80687865  0.69753177     0.20400
H650        H  0.08925288  0.71259374  0.90329725     0.18800
H651        H  0.14140738  0.65472195  0.86575689     0.18700
H652        H  0.14297942  0.87585379  0.74771059     0.14600
C653        C  0.78865470  0.12048068  0.68093821     0.30100
C654        C  0.74234060  0.12031581  0.69935701    -0.36300
C655        C  0.73452345  0.16040115  0.67586552     0.16000
C656        C  0.76953337  0.19765553  0.63582388     0.21900
C657        C  0.81606618  0.19814340  0.61817438    -0.34400
C658        C  0.82415563  0.15852022  0.64247257     0.15900
O659        O  0.80441193  0.08755356  0.69896230    -0.26400
C660        C  0.85104196  0.10510004  0.67255957     0.05700
C661        C  0.86514810  0.14913436  0.63680326    -0.31300
O662        O  0.75473810  0.23170601  0.61970704    -0.23100
C663        C  0.70980122  0.21646656  0.65043391    -0.03100
C664        C  0.69549964  0.17253989  0.68660564    -0.17600
H665        H  0.71462718  0.09136559  0.73080660     0.20400
H666        H  0.84441718  0.22787374  0.58832024     0.18800
H667        H  0.90078495  0.17137449  0.61113402     0.18700
H668        H  0.66158121  0.15282213  0.71681222     0.14600
C669        C  0.81920842  0.58644251  0.67708711     0.30100
C670        C  0.83586762  0.63111403  0.71360568    -0.36300
C671        C  0.86175802  0.67521904  0.67718068     0.16000
C672        C  0.87054730  0.67502152  0.60975131     0.21900
C673        C  0.85385466  0.63060916  0.57342862    -0.34400
C674        C  0.82806689  0.58675978  0.60968539     0.15900
O675        O  0.79225391  0.54081976  0.70003787    -0.26400
C676        C  0.78427579  0.51209167  0.64651698     0.05700
C677        C  0.80547635  0.53858226  0.58885723    -0.31300
O678        O  0.89155939  0.72010727  0.58464453    -0.23100
C679        C  0.89607011  0.74943526  0.63635647    -0.03100
C680        C  0.87868558  0.72405039  0.69558070    -0.17600
H681        H  0.82798216  0.63146126  0.76608506     0.20400
H682        H  0.85913406  0.63035577  0.52034953     0.18800
H683        H  0.80342664  0.52483084  0.53872588     0.18700
H684        H  0.87557272  0.73901635  0.74371854     0.14600
C685        C  0.31492969  0.19873351  0.66496151     0.30100
C686        C  0.35033700  0.23755659  0.70298920    -0.36300
C687        C  0.39989602  0.25929342  0.67726006     0.16000
C688        C  0.41314915  0.24310765  0.61875490     0.21900
C689        C  0.37818646  0.20311443  0.58238446    -0.34400
C690        C  0.32870093  0.18251641  0.60689117     0.15900
O691        O  0.26609712  0.17584197  0.67662225    -0.26400
C692        C  0.24882481  0.14514473  0.62514590     0.05700
C693        C  0.28585260  0.14739674  0.58012036    -0.31300
O694        O  0.46082193  0.26937320  0.60231333    -0.23100
C695        C  0.47867322  0.30285313  0.65074804    -0.03100
C696        C  0.44279136  0.29817738  0.69963543    -0.17600
H697        H  0.33962945  0.25096261  0.74794808     0.20400
H698        H  0.38865273  0.18968806  0.53730235     0.18800
H699        H  0.28158485  0.12773318  0.53348692     0.18700
H700        H  0.44766271  0.31985031  0.74459918     0.14600
C701        C  0.85242879  0.19928594  0.87589781     0.30100
C702        C  0.82474207  0.21322939  0.92151809    -0.36300
C703        C  0.81822354  0.25485656  0.90414407     0.16000
C704        C  0.83650454  0.28019098  0.84522743     0.21900
C705        C  0.86547946  0.26710916  0.80043746    -0.34400
C706        C  0.87304392  0.22622985  0.81859589     0.15900
O707        O  0.86170837  0.16053084  0.88091986    -0.26400
C708        C  0.88922341  0.16359817  0.82681364     0.05700
C709        C  0.89833834  0.20390895  0.78665774    -0.31300
O710        O  0.82014326  0.31357550  0.83533531    -0.23100
C711        C  0.79230831  0.31030614  0.88939782    -0.03100
C712        C  0.79008272  0.27477895  0.93421524    -0.17600
H713        H  0.80833023  0.19232887  0.96643451     0.20400
H714        H  0.87972016  0.28635351  0.75393118     0.18800
H715        H  0.91990987  0.21467359  0.74053130     0.18700
H716        H  0.76683124  0.26181798  0.97880903     0.14600
C717        C  0.72599709  0.60039663  0.87923521     0.30100
C718        C  0.74479886  0.64491062  0.84196641    -0.36300
C719        C  0.76458025  0.69038002  0.87793140     0.16000
C720        C  0.76630676  0.69198407  0.94584497     0.21900
C721        C  0.74769908  0.64761442  0.98301227    -0.34400
C722        C  0.72749794  0.60224063  0.94716999     0.15900
O723        O  0.70659436  0.55371995  0.85597767    -0.26400
C724        C  0.69522898  0.52529075  0.90988735     0.05700
C725        C  0.70251857  0.55415384  0.46650210    -0.31300
O726        O  0.79028362  0.73835032  0.96904388    -0.23100
C727        C  0.80325491  0.76711202  0.91553523    -0.03100
C728        C  0.78860991  0.73924681  0.85741385    -0.17600
H729        H  0.74482051  0.64419540  0.78861510     0.20400
H730        H  0.74166922  0.64944693  0.53398979     0.18800
H731        H  0.69676317  0.54138864  0.51703215     0.18700
H732        H  0.79810726  0.75281304  0.80724889     0.14600
C733        C  0.39664653  0.19807179  0.93024954     0.30100
C734        C  0.35057891  0.15883789  0.95040125    -0.36300
C735        C  0.30793822  0.16546316  0.93942244     0.16000
C736        C  0.30929705  0.20790725  0.91165677     0.21900
C737        C  0.35586541  0.24731999  0.89013603    -0.34400
C738        C  0.39910007  0.24037281  0.90018392     0.15900
O739        O  0.44012898  0.20660109  0.37127841    -0.26400
C740        C  0.47275866  0.24267217  0.90902741     0.05700
C741        C  0.44905762  0.26996705  0.88558128    -0.31300
O742        O  0.26341802  0.20488654  0.90695969    -0.23100
C743        C  0.23303865  0.15975376  0.93238407    -0.03100
C744        C  0.25918082  0.13391268  0.95180923    -0.17600
H745        H  0.34656138  0.13983362  0.32953440     0.20400
H746        H  0.35832506  0.28087998  0.86735755     0.18800
H747        H  0.46637779  0.30657078  0.86246543     0.18700
H748        H  0.24415703  0.09608080  0.97103013     0.14600
loop_ 
_geom_bond_atom_site_label_1 
_geom_bond_atom_site_label_2 
_geom_bond_distance 
_geom_bond_site_symmetry_2 
_ccdc_geom_bond_type 
C1            C3   1.574       .  S
C1            C5   1.594       .  S
C1            C4   1.595       .  S
C1           C25   1.911   1_556  S
C2            C6   1.578       .  S
C2            C8   1.603       .  S
C2            C7   1.592       .  S
C2           C24   1.909       .  S
C3           C11   1.363       .  A
C3          C380   1.479       .  A
C4           C15   1.383       .  A
C4          C381   1.488       .  A
C5           C19   1.376       .  A
C5          C382   1.488       .  A
C6            C9   1.367       .  A
C6          C377   1.478       .  A
C7           C13   1.381       .  A
C7          C378   1.488       .  A
C8           C16   1.388       .  A
C8          C379   1.487       .  A
C9           N10   1.356       .  A
C9           H22   1.081       .  S
N10         C385   1.354       .  A
N10         C337   1.422       .  S
C11         N384   1.354       .  A
C11          H12   1.080       .  S
C13          N14   1.354       .  A
C13          H23   1.079       .  S
N14         C389   1.354       .  A
N14         C366   1.435       .  S
C15         N388   1.355       .  A
C15          H21   1.079   1_556  S
C16         N391   1.364       .  A
C16          H18   1.081       .  S
N17          C19   1.361       .  A
N17         C390   1.363       .  A
N17         C724   1.447       .  S
C19          H20   1.080   1_556  S
C24          C26   1.601       .  S
C24          C28   1.582       .  S
C24          C27   1.587       .  S
C25          C29   1.611       .  S
C25          C31   1.586       .  S
C25          C30   1.575       .  S
C26          C34   1.386       .  A
C26          C29   1.492       .  A
C27          C38   1.377       .  A
C27          C30   1.476       .  A
C28          C42   1.368       .  A
C28          C31   1.484       .  A
C29          C32   1.395       .  A
C30          C36   1.367       .  A
C31          C39   1.372       .  A
C32          N33   1.363       .  A
C32          H45   1.079       .  S
N33          C34   1.358       .  A
N33         C289   1.452       .  S
C34          H35   1.080       .  S
C36          N37   1.355       .  A
C36          H46   1.079       .  S
N37          C38   1.359       .  A
N37         C321   1.432       .  S
C38          H44   1.080       .  S
C39          N40   1.358       .  A
C39          H41   1.082       .  S
N40          C42   1.357       .  A
N40         C302   1.428       .  S
C42          H43   1.081       .  S
N47          N48   1.334       .  A
N47          N53   1.314       .  A
N47         Mn76   2.455       .  S
N48          C55   1.363       .  A
N49          N51   1.316       .  A
N49          N50   1.335       .  A
N49         Mn65   2.463       .  S
N50          C56   1.358       .  A
N51          N52   1.320       .  A
N51         Mn76   2.267       .  S
N52          C56   1.343       .  A
N53          N54   1.307       .  A
N53         Mn65   2.237       .  S
N54          C55   1.342       .  A
C55         C369   1.473       .  S
C56         C241   1.482       .  S
N57          N63   1.328       .  A
N57          N58   1.320       .  A
N57         Mn87   2.202   1_455  S
N58          C66   1.358       .  A
N59          N60   1.322       .  A
N59          N61   1.330       .  A
N59         Mn65   2.360   1_565  S
N60          C67   1.349       .  A
N61          N62   1.317       .  A
N61         Mn87   2.180   1_455  S
N62          C67   1.342       .  A
N63          N64   1.318       .  A
N63         Mn65   2.271   1_565  S
N64          C66   1.346       .  A
Mn65        Cl89   2.520   1_445  S
C66         C123   1.481       .  S
C67         C273   1.441       .  S
N68          N69   1.318       .  A
N68          N74   1.331       .  A
N68         Mn76   2.294   1_655  S
N69          C77   1.341       .  A
N70          N72   1.328       .  A
N70          N71   1.320       .  A
N70         Mn88   2.137   1_545  S
N71         C452   1.349       .  A
N72          N73   1.320       .  A
N72         Mn76   2.328   1_655  S
N73         C452   1.355       .  A
N74          N75   1.324       .  A
N74         Mn88   2.240   1_545  S
N75          C77   1.349       .  A
Mn76        Cl89   2.553   1_445  S
C77         C334   1.440       .  S
C78         N445   1.343       .  A
C78         N447   1.357       .  A
C78         C485   1.476   1_556  S
N79          N80   1.318       .  A
N79          N85   1.322       .  A
N79         Mn87   2.122       .  S
N80          C90   1.336       .  A
N81          N82   1.308       .  A
N81          N83   1.321       .  A
N81         Mn88   2.107       .  S
N82          C91   1.332       .  A
N83          N84   1.343       .  A
N83         Mn87   2.334       .  S
N84          C91   1.367       .  A
N85          N86   1.335       .  A
N85         Mn88   2.331       .  S
N86          C90   1.359       .  A
Mn87        Cl89   2.515       .  S
Mn88        Cl89   2.485       .  S
C90         C353   1.481       .  S
C91         C254   1.495       .  S
N92          N93   1.314       .  A
N92          N98   1.304       .  A
N92        Mn121   2.366       .  S
N93         C100   1.341       .  A
N94          N96   1.311       .  A
N94          N95   1.319       .  A
N94        Mn110   2.347       .  S
N95         C101   1.352       .  A
N96          N97   1.313       .  A
N96        Mn121   2.334       .  S
N97         C101   1.346       .  A
N98          N99   1.317       .  A
N98        Mn110   2.307       .  S
N99         C100   1.344       .  A
C100        C318   1.455       .  S
C101        C193   1.445       .  S
N102        N108   1.305       .  A
N102        N103   1.325       .  A
N102       Mn506   2.354   1_545  S
N103        C111   1.358       .  A
N104        N105   1.330       .  A
N104        N106   1.329       .  A
N104       Mn110   2.360   1_566  S
N105        C112   1.351       .  A
N106        N107   1.341       .  A
N106       Mn132   2.339   1_455  S
N107        C112   1.367       .  A
N108        N109   1.322       .  A
N108       Mn484   2.336   1_655  S
N109        C111   1.352       .  A
Mn110       N482   2.296   1_455  S
Mn110      Cl134   2.600   1_455  S
C111        C452   1.480       .  S
C112        C222   1.515       .  S
N113        N114   1.335       .  A
N113        N119   1.327       .  A
N113       Mn121   2.436   1_655  S
N114        C122   1.361       .  A
N115        N117   1.304   1_665  A
N115        N116   1.319   1_655  A
N115       Mn133   2.338       .  S
N116        C123   1.349       .  A
N117        N118   1.322   1_545  A
N117       Mn121   2.314       .  S
N118        C123   1.358       .  A
N119        N120   1.330       .  A
N119       Mn133   2.382   1_545  S
N120        C122   1.353       .  A
Mn121      Cl134   2.699   1_455  S
C122        C286   1.495       .  S
N124        N125   1.319       .  A
N124        N130   1.310       .  A
N124       Mn132   2.229   1_554  S
N125        C135   1.349       .  A
N126        N127   1.316       .  A
N126        N128   1.309       .  A
N126       Mn133   2.310       .  S
N127        C136   1.345       .  A
N128        N129   1.321   1_554  A
N128       Mn132   2.267   1_554  S
N129        C136   1.349   1_556  A
N130        N131   1.319       .  A
N130       Mn133   2.287       .  S
N131        C135   1.346       .  A
Mn132       N476   2.321   1_566  S
Mn132      Cl134   2.548   1_566  S
Mn133      Cl134   2.556   1_565  S
C135        C305   1.453       .  S
C136        C209   1.460       .  S
C137        C139   1.569       .  S
C137        C141   1.604       .  S
C137        C140   1.606       .  S
C137        C535   1.915       .  S
C138        C142   1.574       .  S
C138        C144   1.591       .  S
C138        C143   1.611       .  S
C138        C160   1.910       .  S
C139        C147   1.362       .  A
C139        C142   1.475       .  A
C140        C151   1.384       .  A
C140        C143   1.491       .  A
C141        C155   1.390       .  A
C141        C144   1.487       .  A
C142        C145   1.367       .  A
C143        C149   1.392       .  A
C144        C152   1.383       .  A
C145        N146   1.354       .  A
C145        H158   1.082       .  S
N146        C147   1.352       .  A
N146        C270   1.413       .  S
C147        H148   1.081       .  S
C149        N150   1.365       .  A
C149        H159   1.082       .  S
N150        C151   1.365       .  A
N150        C238   1.455       .  S
C151        H157   1.081       .  S
C152        N153   1.353       .  A
C152        H154   1.077       .  S
N153        C155   1.358       .  A
N153        C257   1.444       .  S
C155        H156   1.078       .  S
C160        C162   1.612       .  S
C160        C164   1.583       .  S
C160        C163   1.571       .  S
C161        C165   1.616       .  S
C161        C167   1.573       .  S
C161        C166   1.580       .  S
C161        C511   1.913       .  S
C162        C170   1.394       .  A
C162        C165   1.496       .  A
C163        C174   1.358       .  A
C163        C166   1.483       .  A
C164        C178   1.374       .  A
C164        C167   1.475       .  A
C165        C168   1.397       .  A
C166        C172   1.365       .  A
C167        C175   1.366       .  A
C168        N169   1.364       .  A
C168        H181   1.080       .  S
N169        C170   1.362       .  A
N169        C225   1.459       .  S
C170        H171   1.081       .  S
C172        N173   1.356       .  A
C172        H182   1.082       .  S
N173        C174   1.353       .  A
N173        C190   1.417       .  S
C174        H180   1.081       .  S
C175        N176   1.355       .  A
C175        H177   1.079       .  S
N176        C178   1.356       .  A
N176        C206   1.428       .  S
C178        H179   1.079       .  S
C183        C188   1.383       .  A
C183        C184   1.390       .  A
C183        O189   1.308       .  A
C184        C185   1.390       .  A
C184        H195   1.083       .  S
C185        C186   1.383       .  A
C185        C568   1.343       .  A
C186        C187   1.394       .  A
C186        O566   1.312       .  A
C187        C188   1.395       .  A
C187        H196   1.083       .  S
C188        C191   1.349       .  A
O189        C190   1.324       .  A
C190        C191   1.390       .  A
C191        H197   1.082       .  S
O192        C193   1.325       .  A
O192        C560   1.309       .  A
C193        C194   1.386   1_554  A
C194        C559   1.357       .  A
C194        H572   1.083       .  S
H198        C568   1.083       .  S
C199        C204   1.381       .  A
C199        C200   1.400       .  A
C199        O205   1.313       .  A
C200        C201   1.397       .  A
C200        H211   1.082       .  S
C201        C210   1.357       .  A
C201        C576   1.381       .  A
C202        C203   1.400       .  A
C202        C575   1.380   1_554  A
C202        O208   1.314       .  A
C203        C578   1.398       .  A
C203        H212   1.081       .  S
C204        C207   1.354       .  A
C204        C577   1.395       .  A
O205        C206   1.330       .  A
C206        C207   1.391       .  A
C207        H587   1.082       .  S
O208        C209   1.328       .  A
C209        C584   1.389   1_554  A
C210        C583   1.387       .  A
C210        H214   1.083       .  S
H213        C581   1.082       .  S
C215        C216   1.416       .  A
C215        C594   1.377   1_556  A
C215        O221   1.330       .  A
C216        C591   1.415       .  A
C216        H227   1.082       .  S
C217        C226   1.377       .  A
C217        C218   1.380       .  A
C217        C590   1.416       .  A
C218        C219   1.416       .  A
C218        O224   1.333       .  A
C219        C220   1.416       .  A
C219        H228   1.082       .  S
C220        C223   1.375       .  A
C220        C589   1.378       .  A
O221        C222   1.340       .  A
C222        C597   1.401   1_556  A
C223        C596   1.399       .  A
C223        H229   1.082       .  S
O224        C225   1.338       .  A
C225        C226   1.398       .  A
C226        H604   1.082       .  S
H230        C600   1.082       .  S
C231        C236   1.379       .  A
C231        C232   1.414       .  A
C231        O237   1.329       .  A
C232        C233   1.413       .  A
C232        H243   1.082       .  S
C233        C242   1.374       .  A
C233        C234   1.379       .  A
C234        C235   1.408       .  A
C234        O240   1.322       .  A
C235        C236   1.408       .  A
C235        H244   1.083       .  S
C236        C239   1.368       .  A
O237        C238   1.338       .  A
C238        C239   1.397       .  A
C239        H245   1.082       .  S
O240        C241   1.333       .  A
C241        C242   1.396       .  A
C242        H246   1.082       .  S
C247        C252   1.378       .  A
C247        C248   1.416       .  A
C247        O253   1.339       .  A
C248        C249   1.420       .  A
C248        H259   1.082       .  S
C249        C258   1.373       .  A
C249        C250   1.382       .  A
C250        C251   1.399       .  A
C250        O256   1.324       .  A
C251        C252   1.402       .  A
C251        H260   1.082       .  S
C252        C255   1.348       .  A
O253        C254   1.339       .  A
C254        C255   1.394       .  A
C255        H261   1.082       .  S
O256        C257   1.328       .  A
C257        C258   1.399       .  A
C258        H262   1.082       .  S
C263        C268   1.383       .  A
C263        C264   1.397       .  A
C263        O269   1.315       .  A
C264        C265   1.397       .  A
C264        H275   1.082       .  S
C265        C274   1.352       .  A
C265        C266   1.383       .  A
C266        C267   1.391       .  A
C266        O272   1.310       .  A
C267        C268   1.392       .  A
C267        H276   1.083       .  S
C268        C271   1.344       .  A
O269        C270   1.326       .  A
C270        C271   1.385       .  A
C271        H277   1.082       .  S
O272        C273   1.323       .  A
C273        C274   1.386       .  A
C274        H278   1.083       .  S
C279        C284   1.379       .  A
C279        C280   1.411       .  A
C279        O285   1.326       .  A
C280        C281   1.411       .  A
C280        H291   1.082       .  S
C281        C290   1.372       .  A
C281        C282   1.380       .  A
C282        C283   1.414       .  A
C282        O288   1.329       .  A
C283        C284   1.413       .  A
C283        H292   1.082       .  S
C284        C287   1.374       .  A
O285        C286   1.336       .  A
C286        C287   1.396       .  A
C287        H293   1.082       .  S
O288        C289   1.337       .  A
C289        C290   1.395       .  A
C290        H294   1.082       .  S
C295        C300   1.382       .  A
C295        C296   1.398       .  A
C295        O301   1.314       .  A
C296        C297   1.397       .  A
C296        H307   1.082       .  S
C297        C306   1.356       .  A
C297        C298   1.382       .  A
C298        C299   1.399       .  A
C298        O304   1.314       .  A
C299        C300   1.399       .  A
C299        H308   1.082       .  S
C300        C303   1.357       .  A
O301        C302   1.328       .  A
C302        C303   1.392       .  A
C303        H309   1.082       .  S
O304        C305   1.328       .  A
C305        C306   1.386       .  A
C306        H310   1.083       .  S
C311        C316   1.378       .  A
C311        C312   1.401       .  A
C311        O317   1.315       .  A
C312        C313   1.400       .  A
C312        H323   1.078       .  S
C313        C322   1.358       .  A
C313        C314   1.379       .  A
C314        C315   1.396       .  A
C314        O320   1.314       .  A
C315        C316   1.396       .  A
C315        H324   1.073       .  S
C316        C319   1.356       .  A
O317        C318   1.328       .  A
C318        C319   1.385       .  A
C319        H325   1.079       .  S
O320        C321   1.328       .  A
C321        C322   1.395       .  A
C322        H326   1.082       .  S
C327        C332   1.382       .  A
C327        C328   1.396       .  A
C327        O333   1.310       .  A
C328        C329   1.395       .  A
C328        H339   1.083       .  S
C329        C338   1.354       .  A
C329        C330   1.383       .  A
C330        C331   1.398       .  A
C330        O336   1.311       .  A
C331        C332   1.396       .  A
C331        H340   1.082       .  S
C332        C335   1.356       .  A
O333        C334   1.324       .  A
C334        C335   1.384       .  A
C335        H341   1.082       .  S
O336        C337   1.328       .  A
C337        C338   1.388       .  A
C338        H342   1.082       .  S
C343        C348   1.379       .  A
C343        C344   1.412       .  A
C343        O349   1.328       .  A
C344        C345   1.412       .  A
C344        H355   1.082       .  S
C345        C354   1.371       .  A
C345        C346   1.379       .  A
C346        C347   1.407       .  A
C346        O352   1.324       .  A
C347        C348   1.407       .  A
C347        H730   1.082       .  S
C348        C725   1.366       .  A
O349        C350   1.337       .  A
C350        C725   1.397       .  A
C350        N391   1.452       .  S
C351        C722   1.362       .  A
C351        C724   1.396       .  A
C351        H357   1.082   1_556  S
O352        C353   1.333       .  A
C353        C354   1.397       .  A
C354        H358   1.082       .  S
H356        C721   1.083   1_554  S
C359        C364   1.382       .  A
C359        C360   1.396       .  A
C359        O739   1.320       .  A
C360        C361   1.399       .  A
C360        H745   1.082       .  S
C361        C370   1.346       .  A
C361        C362   1.379       .  A
C362        C363   1.408       .  A
C362        O368   1.330       .  A
C363        C364   1.412       .  A
C363        H372   1.082       .  S
C364        C367   1.365       .  A
O365        C733   1.319       .  A
O365        C740   1.325       .  A
C366        C367   1.394       .  A
C366        O739   1.327       .  A
C367        H373   1.082       .  S
O368        C369   1.334       .  A
C369        C370   1.390       .  A
C370        H374   1.083       .  S
H371        C734   1.083       .  S
C375        C377   1.576       .  S
C375        C379   1.602       .  S
C375        C378   1.594       .  S
C375        C399   1.912       .  S
C376        C380   1.577       .  S
C376        C382   1.604       .  S
C376        C381   1.589       .  S
C376        C398   1.909       .  S
C377        C385   1.368       .  A
C378        C389   1.380       .  A
C379        C393   1.382       .  A
C380        C383   1.368       .  A
C381        C387   1.376       .  A
C382        C390   1.387       .  A
C383        N384   1.354       .  A
C383        H396   1.082       .  S
N384        C711   1.419       .  S
C385        H386   1.081       .  S
C387        N388   1.352       .  A
C387        H397   1.077       .  S
N388        C740   1.433       .  S
C389        H395   1.078       .  S
C390        H392   1.081       .  S
N391        C393   1.364       .  A
C393        H394   1.080       .  S
C398        C400   1.603       .  S
C398        C402   1.583       .  S
C398        C401   1.588       .  S
C399        C403   1.607       .  S
C399        C405   1.572       .  S
C399        C404   1.577       .  S
C400        C408   1.386       .  A
C400        C403   1.492       .  A
C401        C412   1.379       .  A
C401        C404   1.478       .  A
C402        C416   1.368       .  A
C402        C405   1.484       .  A
C403        C406   1.391       .  A
C404        C410   1.362       .  A
C405        C413   1.359       .  A
C406        N407   1.362       .  A
C406        H419   1.080       .  S
N407        C408   1.359       .  A
N407        C663   1.449       .  S
C408        H409   1.081       .  S
C410        N411   1.351       .  A
C410        H420   1.079       .  S
N411        C412   1.357       .  A
N411        C695   1.426       .  S
C412        H418   1.078       .  S
C413        N414   1.354       .  A
C413        H415   1.080       .  S
N414        C416   1.355       .  A
N414        C676   1.420       .  S
C416        H417   1.081       .  S
N421        N422   1.340       .  A
N421        N427   1.323       .  A
N421       Mn450   2.341       .  S
N422        C429   1.363       .  A
N423        N425   1.319       .  A
N423        N424   1.335       .  A
N423       Mn439   2.428       .  S
N424        C430   1.360       .  A
N425        N426   1.316       .  A
N425       Mn450   2.149       .  S
N426        C430   1.337       .  A
N427        N428   1.306       .  A
N427       Mn439   2.195       .  S
N428        C429   1.333       .  A
C429        C743   1.481       .  S
C430        C615   1.473       .  S
N431        N437   1.325       .  A
N431        N432   1.316       .  A
N431       Mn461   2.354   1_455  S
N432        C440   1.358       .  A
N433        N434   1.322       .  A
N433        N435   1.329       .  A
N433       Mn439   2.376   1_565  S
N434        C441   1.351       .  A
N435        N436   1.317       .  A
N435       Mn461   2.327   1_455  S
N436        C441   1.343       .  A
N437        N438   1.315       .  A
N437       Mn439   2.297   1_565  S
N438        C440   1.348       .  A
Mn439      Cl463   2.465   1_455  S
C440        C497   1.486       .  S
C441        C647   1.436       .  S
N442        N443   1.317       .  A
N442        N448   1.333       .  A
N442       Mn450   2.168   1_655  S
N443        C451   1.341       .  A
N444        N446   1.329       .  A
N444        N445   1.318       .  A
N444       Mn462   2.257   1_545  S
N446        N447   1.320       .  A
N446       Mn450   2.201   1_655  S
N448        N449   1.321       .  A
N448       Mn462   2.379   1_545  S
N449        C451   1.347       .  A
Mn450      Cl463   2.537   1_455  S
C451        C708   1.434       .  S
N453        N454   1.318       .  A
N453        N459   1.315       .  A
N453       Mn461   2.237       .  S
N454        C464   1.341       .  A
N455        N456   1.306       .  A
N455        N457   1.316       .  A
N455       Mn462   2.211       .  S
N456        C465   1.335       .  A
N457        N458   1.336       .  A
N457       Mn461   2.488       .  S
N458        C465   1.366       .  A
N459        N460   1.332       .  A
N459       Mn462   2.484       .  S
N460        C464   1.354       .  A
Mn461      Cl463   2.615   1_565  S
Mn462      Cl463   2.458   1_565  S
C464        C727   1.470       .  S
C465        C628   1.469       .  S
N466        N467   1.307       .  A
N466        N472   1.306       .  A
N466       Mn495   2.359       .  S
N467        C474   1.333       .  A
N468        N470   1.313       .  A
N468        N469   1.318       .  A
N468       Mn484   2.337       .  S
N469        C475   1.351       .  A
N470        N471   1.309       .  A
N470       Mn495   2.311       .  S
N471        C475   1.344       .  A
N472        N473   1.321       .  A
N472       Mn484   2.292       .  S
N473        C474   1.343       .  A
C474        C692   1.445       .  S
C475        C567   1.436       .  S
N476        N482   1.313       .  A
N476        N477   1.341       .  A
N477        C485   1.358       .  A
N478        N479   1.331       .  A
N478        N480   1.325       .  A
N478       Mn484   2.388   1_565  S
N479        C486   1.356       .  A
N480        N481   1.336       .  A
N480       Mn506   2.440   1_455  S
N481        C486   1.363       .  A
N482        N483   1.326       .  A
N483        C485   1.342       .  A
Mn484      Cl508   2.568   1_455  S
C486        C596   1.506       .  S
N487        N488   1.332       .  A
N487        N493   1.326       .  A
N487       Mn495   2.441   1_655  S
N488        C496   1.359       .  A
N489        N491   1.306   1_665  A
N489        N490   1.318   1_655  A
N489       Mn507   2.329       .  S
N490        C497   1.351       .  A
N491        N492   1.323   1_545  A
N491       Mn495   2.331       .  S
N492        C497   1.359       .  A
N493        N494   1.330       .  A
N493       Mn507   2.381   1_545  S
N494        C496   1.352       .  A
Mn495      Cl508   2.606   1_455  S
C496        C660   1.492       .  S
N498        N499   1.311       .  A
N498        N504   1.310       .  A
N498       Mn506   2.312       .  S
N499        C509   1.346       .  A
N500        N501   1.317       .  A
N500        N502   1.306       .  A
N500       Mn507   2.319       .  S
N501        C510   1.346       .  A
N502        N503   1.314       .  A
N502       Mn506   2.351       .  S
N503        C510   1.342       .  A
N504        N505   1.317       .  A
N504       Mn507   2.325       .  S
N505        C509   1.349       .  A
Mn506      Cl508   2.590   1_565  S
Mn507      Cl508   2.592   1_565  S
C509        C679   1.435       .  S
C510        C583   1.449       .  S
C511        C513   1.570       .  S
C511        C515   1.597       .  S
C511        C514   1.609       .  S
C512        C516   1.577       .  S
C512        C518   1.589       .  S
C512        C517   1.599       .  S
C512        C534   1.908       .  S
C513        C521   1.362       .  A
C513        C516   1.478       .  A
C514        C525   1.389       .  A
C514        C517   1.490       .  A
C515        C529   1.385       .  A
C515        C518   1.485       .  A
C516        C519   1.367       .  A
C517        C523   1.382       .  A
C518        C526   1.378       .  A
C519        N520   1.357       .  A
C519        H532   1.082       .  S
N520        C521   1.352       .  A
N520        C644   1.417       .  S
C521        H522   1.081       .  S
C523        N524   1.363       .  A
C523        H533   1.081       .  S
N524        C525   1.365       .  A
N524        C612   1.452       .  S
C525        H531   1.082       .  S
C526        N527   1.353       .  A
C526        H528   1.078       .  S
N527        C529   1.358       .  A
N527        C631   1.435       .  S
C529        H530   1.080       .  S
C534        C536   1.608       .  S
C534        C538   1.584       .  S
C534        C537   1.585       .  S
C535        C539   1.619       .  S
C535        C541   1.581       .  S
C535        C540   1.576       .  S
C536        C544   1.393       .  A
C536        C539   1.494   1_556  A
C537        C548   1.371       .  A
C537        C540   1.482   1_556  A
C538        C552   1.377       .  A
C538        C541   1.474   1_556  A
C539        C542   1.402       .  A
C540        C546   1.363       .  A
C541        C549   1.371       .  A
C542        N543   1.366       .  A
C542        H555   1.079       .  S
N543        C544   1.362   1_554  A
N543        C599   1.463       .  S
C544        H545   1.081       .  S
C546        N547   1.357       .  A
C546        H556   1.081       .  S
N547        C548   1.358   1_554  A
N547        C564   1.425       .  S
C548        H554   1.082       .  S
C549        N550   1.356       .  A
C549        H551   1.078       .  S
N550        C552   1.356   1_554  A
N550        C580   1.434       .  S
C552        H553   1.079       .  S
C557        C562   1.383   1_556  A
C557        C558   1.399       .  A
C557        O563   1.313       .  A
C558        C559   1.397       .  A
C558        H569   1.083       .  S
C559        C560   1.383   1_556  A
C560        C561   1.395       .  A
C561        C562   1.394       .  A
C561        H570   1.083       .  S
C562        C565   1.352       .  A
O563        C564   1.328   1_556  A
C564        C565   1.390       .  A
C565        H571   1.082       .  S
O566        C567   1.324       .  A
C567        C568   1.383       .  A
C573        C578   1.380   1_556  A
C573        C574   1.404       .  A
C573        O579   1.317       .  A
C574        C575   1.401       .  A
C574        H585   1.081       .  S
C575        C584   1.363       .  A
C576        C577   1.396       .  A
C576        O582   1.311       .  A
C577        H586   1.081       .  S
C578        C581   1.358       .  A
O579        C580   1.332   1_556  A
C580        C581   1.392       .  A
O582        C583   1.325       .  A
C584        H588   1.083       .  S
C589        C590   1.415       .  A
C589        O595   1.331       .  A
C590        H601   1.082       .  S
C591        C600   1.377       .  A
C591        C592   1.379   1_556  A
C592        C593   1.421       .  A
C592        O598   1.336       .  A
C593        C594   1.420       .  A
C593        H602   1.082       .  S
C594        C597   1.383       .  A
O595        C596   1.337       .  A
C597        H603   1.082       .  S
O598        C599   1.341       .  A
C599        C600   1.398   1_554  A
C605        C610   1.380       .  A
C605        C606   1.408       .  A
C605        O611   1.326       .  A
C606        C607   1.407       .  A
C606        H617   1.083       .  S
C607        C616   1.364       .  A
C607        C608   1.379       .  A
C608        C609   1.409       .  A
C608        O614   1.326       .  A
C609        C610   1.411       .  A
C609        H618   1.082       .  S
C610        C613   1.369       .  A
O611        C612   1.335       .  A
C612        C613   1.398       .  A
C613        H619   1.082       .  S
O614        C615   1.334       .  A
C615        C616   1.392       .  A
C616        H620   1.083       .  S
C621        C626   1.378       .  A
C621        C622   1.401       .  A
C621        O627   1.309       .  A
C622        C623   1.397       .  A
C622        H633   1.082       .  S
C623        C632   1.364       .  A
C623        C624   1.381       .  A
C624        C625   1.413       .  A
C624        O630   1.321       .  A
C625        C626   1.408       .  A
C625        H634   1.082       .  S
C626        C629   1.377       .  A
O627        C628   1.330       .  A
C628        C629   1.394       .  A
C629        H635   1.081       .  S
O630        C631   1.334       .  A
C631        C632   1.387       .  A
C632        H636   1.082       .  S
C637        C642   1.383       .  A
C637        C638   1.395       .  A
C637        O643   1.307       .  A
C638        C639   1.392       .  A
C638        H649   1.083       .  S
C639        C648   1.352       .  A
C639        C640   1.382       .  A
C640        C641   1.395       .  A
C640        O646   1.310       .  A
C641        C642   1.395       .  A
C641        H650   1.083       .  S
C642        C645   1.355       .  A
O643        C644   1.326       .  A
C644        C645   1.387       .  A
C645        H651   1.082       .  S
O646        C647   1.324       .  A
C647        C648   1.383       .  A
C648        H652   1.083       .  S
C653        C658   1.379       .  A
C653        C654   1.412       .  A
C653        O659   1.327       .  A
C654        C655   1.412       .  A
C654        H665   1.082       .  S
C655        C664   1.373       .  A
C655        C656   1.380       .  A
C656        C657   1.411       .  A
C656        O662   1.327       .  A
C657        C658   1.410       .  A
C657        H666   1.082       .  S
C658        C661   1.370       .  A
O659        C660   1.336       .  A
C660        C661   1.394       .  A
C661        H667   1.082       .  S
O662        C663   1.335       .  A
C663        C664   1.395       .  A
C664        H668   1.082       .  S
C669        C674   1.382       .  A
C669        C670   1.398       .  A
C669        O675   1.312       .  A
C670        C671   1.396       .  A
C670        H681   1.082       .  S
C671        C680   1.356       .  A
C671        C672   1.383       .  A
C672        C673   1.390       .  A
C672        O678   1.304       .  A
C673        C674   1.389       .  A
C673        H682   1.083       .  S
C674        C677   1.347       .  A
O675        C676   1.328       .  A
C676        C677   1.387       .  A
C677        H683   1.082       .  S
O678        C679   1.322       .  A
C679        C680   1.386       .  A
C680        H684   1.083       .  S
C685        C690   1.381       .  A
C685        C686   1.402       .  A
C685        O691   1.310       .  A
C686        C687   1.399       .  A
C686        H697   1.081       .  S
C687        C696   1.365       .  A
C687        C688   1.381       .  A
C688        C689   1.395       .  A
C688        O694   1.306       .  A
C689        C690   1.390       .  A
C689        H698   1.081       .  S
C690        C693   1.356       .  A
O691        C692   1.329       .  A
C692        C693   1.382       .  A
C693        H699   1.083       .  S
O694        C695   1.327       .  A
C695        C696   1.390       .  A
C696        H700   1.082       .  S
C701        C706   1.383       .  A
C701        C702   1.393       .  A
C701        O707   1.310       .  A
C702        C703   1.394       .  A
C702        H713   1.083       .  S
C703        C712   1.349       .  A
C703        C704   1.383       .  A
C704        C705   1.396       .  A
C704        O710   1.312       .  A
C705        C706   1.395       .  A
C705        H714   1.083       .  S
C706        C709   1.351       .  A
O707        C708   1.323       .  A
C708        C709   1.383       .  A
C709        H715   1.082       .  S
O710        C711   1.327       .  A
C711        C712   1.388       .  A
C712        H716   1.082       .  S
C717        C722   1.380       .  A
C717        C718   1.409       .  A
C717        O723   1.325       .  A
C718        C719   1.408       .  A
C718        H729   1.082       .  S
C719        C728   1.366       .  A
C719        C720   1.380       .  A
C720        C721   1.404       .  A
C720        O726   1.321       .  A
C721        C722   1.405       .  A
O723        C724   1.335       .  A
C725        H731   1.082       .  S
O726        C727   1.331       .  A
C727        C728   1.393       .  A
C728        H732   1.083       .  S
C733        C738   1.383       .  A
C733        C734   1.393       .  A
C734        C735   1.397       .  A
C735        C744   1.342       .  A
C735        C736   1.379       .  A
C736        C737   1.412       .  A
C736        O742   1.334       .  A
C737        C738   1.416       .  A
C737        H746   1.082       .  S
C738        C741   1.366       .  A
C740        C741   1.396       .  A
C741        H747   1.082       .  S
O742        C743   1.336       .  A
C743        C744   1.391       .  A
C744        H748   1.083       .  S
