geometry optimzed in LAMMPS
_audit_creation_date              2020-11-30 
_audit_creation_method            'lammps2cif' 
_symmetry_space_group_name_H-M    'P1' 
_symmetry_Int_Tables_number       1 
_symmetry_cell_setting            triclinic 
loop_ 
_symmetry_equiv_pos_as_xyz 
  x,y,z 
_cell_length_a                    48.87894015 
_cell_length_b                    49.15930505106087 
_cell_length_c                    35.60621072195006 
_cell_angle_alpha                 97.077740013625 
_cell_angle_beta                  80.33329047806293 
_cell_angle_gamma                 128.72063414163344 
loop_ 
_atom_site_label 
_atom_site_type_symbol 
_atom_site_fract_x 
_atom_site_fract_y 
_atom_site_fract_z 
_atom_site_charge 
C1          C  0.32334685  0.15856495  0.03311047     0.30000
C2          C  0.31970511  0.15323365  0.45398632     0.30000
C3          C  0.34306282  0.14643967  0.00753649    -0.06200
C4          C  0.28671616  0.13441685  0.01881976    -0.07000
C5          C  0.34018920  0.19336249  0.01359245    -0.06900
C6          C  0.33934094  0.14173816  0.46803472    -0.06200
C7          C  0.28403910  0.13063996  0.47946475    -0.07000
C8          C  0.33784753  0.18933859  0.47326295    -0.06900
C9          C  0.35469504  0.12651436  0.45206050    -0.32300
N10         N  0.36771177  0.12236955  0.47974754     0.14200
C11         C  0.36121556  0.13463000  0.01333857    -0.32300
H12         H  0.36786055  0.13347759  0.04029390     0.16200
C13         C  0.24885263  0.10764116  0.47417767    -0.31300
N14         N  0.23066903  0.09995507  0.00808207     0.12900
C15         C  0.25230647  0.11477207  0.03589688    -0.31300
C16         C  0.35693799  0.22215298  0.45945952    -0.31600
N17         N  0.36963964  0.24667698  0.99105725     0.13400
H18         H  0.36113483  0.22885600  0.43008983     0.16100
C19         C  0.35987952  0.22870081  0.02313249    -0.31600
H20         H  0.36779292  0.24085942  0.05075696     0.16100
H21         H  0.24367022  0.11275151  0.06617599     0.16100
H22         H  0.35545217  0.11787203  0.42272708     0.16100
H23         H  0.23808110  0.09926173  0.44720980     0.16100
C24         C  0.32451526  0.15995872  0.20397630     0.30000
C25         C  0.32489951  0.15801130  0.28246829     0.30000
C26         C  0.34077586  0.14403014  0.21568245    -0.06200
C27         C  0.34554189  0.19514541  0.22597325    -0.07000
C28         C  0.28864522  0.13899995  0.22856097    -0.06900
C29         C  0.33988320  0.14187855  0.25510626    -0.06200
C30         C  0.34514124  0.19430912  0.26534949    -0.07000
C31         C  0.28841319  0.13783087  0.26788941    -0.06900
C32         C  0.35245668  0.12391239  0.25848418    -0.32300
N33         N  0.36361620  0.11809965  0.22315895     0.14200
C34         C  0.35664679  0.13010523  0.19690654    -0.32300
H35         H  0.36314347  0.12897771  0.16646955     0.16200
C36         C  0.36454048  0.22852205  0.27885411    -0.31300
N37         N  0.37677886  0.24969409  0.24894759     0.12900
C38         C  0.36653754  0.22955382  0.21672910    -0.31300
C39         C  0.25326904  0.11581916  0.28283243    -0.31600
N40         N  0.23310991  0.10441111  0.25409660     0.13400
H41         H  0.24275227  0.10824727  0.31215399     0.16100
C42         C  0.25429499  0.11823019  0.22100245    -0.31600
H43         H  0.24523561  0.11401882  0.19359110     0.16100
H44         H  0.37352969  0.23950100  0.18842237     0.16100
H45         H  0.35398815  0.11600729  0.28458812     0.16100
H46         H  0.36925752  0.23724573  0.30813298     0.16100
O47         O  0.06258496  0.47910515  0.37015154    -0.75300
O48         O  0.04223536  0.45636634  0.42914844    -0.54200
C49         C  0.05998563  0.46159602  0.39638491     0.78400
O50         O  0.06320804  0.12022461  0.41749237    -0.59900
O51         O  0.01679389  0.09950638  0.38507729    -0.53000
C52         C  0.04657545  0.12425181  0.39700472     0.70400
O53         O  0.09106609  0.06505142  0.47754573    -0.74500
O54         O  0.06187651  0.00815469  0.49104050    -0.55100
C55         C  0.08905106  0.04059118  0.49098805     0.76400
O56         O  0.03766965  0.54085056  0.31619385    -0.59600
O57         O  0.49885671  0.04858167  0.32420085    -0.52800
C58         C  0.50886397  0.03084940  0.30997594     0.73000
Zr59       Zr  0.03682986  0.50697546  0.36051358     2.54700
O60         O  0.09961055  0.04908026  0.34125986    -0.80200
O61         O  0.53264569  0.46789701  0.30300835    -0.93600
Zr62       Zr  0.05513828  0.07220917  0.44633044     2.64700
O63         O  0.11737544  0.11368643  0.42242044    -0.98600
O64         O  0.06415383  0.10928582  0.50271813    -0.80600
O65         O  0.05410708  0.02403240  0.42162744    -0.84000
O66         O  0.03803432  0.05443634  0.38467687    -2.18700
O67         O  0.39656452  0.44456150  0.37033985    -0.67400
O68         O  0.42236843  0.50157890  0.36289103    -0.52000
C69         C  0.39658165  0.46877254  0.36028861     0.71400
O70         O  0.44004937  0.95621268  0.01164851    -0.60300
O71         O  0.97799279  0.44954422  0.02110046    -0.52300
C72         C  0.46069517  0.45979816  0.03268492     0.73200
O73         O  0.42723195  0.03503738  0.47989152    -0.71700
O74         O  0.44840743  0.05824590  0.42112520    -0.50400
C75         C  0.43024264  0.05296352  0.45376944     0.74600
O76         O  0.42287262  0.39145693  0.43302661    -0.67000
O77         O  0.47070847  0.41063128  0.46158622    -0.54200
C78         C  0.43967941  0.38650097  0.45196867     0.72900
Zr79       Zr  0.43312145  0.44024630  0.40337105     2.77500
O80         O  0.37219528  0.39910288  0.43288198    -0.97800
O81         O  0.42413349  0.40494711  0.34549684    -0.78600
Zr82       Zr  0.45546587  0.00981457  0.49074891     2.70100
O83         O  0.40412421  0.48807863  0.03654730    -0.79800
O84         O  0.98119723  0.05450923  0.04226439    -0.98900
Zr85       Zr  0.00924700  0.47558834  0.45945799     2.21500
Zr86       Zr  0.48016103  0.03739649  0.39022219     2.11100
O87         O  0.43421391  0.48849219  0.42970441    -2.47600
O88         O  0.45211691  0.46017612  0.46330336    -0.79600
O89         O  0.47981088  0.48944010  0.37353811    -0.71800
O90         O  0.01232584  0.02509670  0.48674021    -2.32800
O91         O  0.49005859  0.45418082  0.39666834    -2.29000
O92         O  0.99809826  0.05756289  0.45070654    -0.73600
H93         H  0.05491971  0.07466701  0.36896322     0.78400
H94         H  0.02276508  0.03420555  0.01168726     0.79500
H95         H  0.41132767  0.48318824  0.43165445     0.81700
H96         H  0.48863972  0.43393206  0.38772745     0.79300
H97         H  0.06633545  0.09880427  0.52287484     0.42400
H98         H  0.99499157  0.07705876  0.02952884     0.41300
H99         H  0.38410053  0.46951723  0.02231295     0.41000
H100        H  0.36420005  0.41329693  0.44158435     0.38900
H101        H  0.42221174  0.38510669  0.35332393     0.42100
H102        H  0.51930892  0.44410376  0.31254961     0.36900
H103        H  0.11075282  0.05692579  0.36515083     0.43000
H104        H  0.11792824  0.11240956  0.39434916     0.39400
H105        H  0.35830778  0.38439283  0.41158471     0.44300
H106        H  0.06006098  0.47993883  0.29833309     0.43000
H107        H  0.12403521  0.13698752  0.43013283     0.43200
H108        H  0.46033363  0.05012677  0.05873698     0.43500
O109        O  0.04363151  0.45835889  0.13324029    -0.75300
O110        O  0.03900648  0.45605663  0.19735861    -0.54200
C111        C  0.04907607  0.45104441  0.16333127     0.78400
O112        O  0.06253135  0.11210003  0.14218656    -0.59900
O113        O  0.51625983  0.08685075  0.10833212    -0.53000
C114        C  0.04558554  0.11385717  0.11969268     0.70400
O115        O  0.09776290  0.06802052  0.20987803    -0.74500
O116        O  0.06700778  0.01689273  0.24126288    -0.55100
C117        C  0.09522192  0.04749000  0.23204347     0.76400
O118        O  0.00738338  0.50315747  0.06712866    -0.59600
O119        O  0.45985319  0.99848173  0.07460584    -0.52800
C120        C  0.47638676  0.98736533  0.05850243     0.73000
Zr121      Zr  0.01414243  0.48011928  0.11611435     2.54700
O122        O  0.06111723  0.99296386  0.06592458    -0.80200
O123        O  0.48261410  0.42383644  0.08131500    -0.93600
Zr124      Zr  0.06040688  0.06891243  0.17284340     2.64700
O125        O  0.11003978  0.08782826  0.12383916    -0.98600
O126        O  0.09872421  0.12456063  0.20604898    -0.80600
O127        O  0.04737410  0.01329700  0.16620349    -0.84000
O128        O  0.02876303  0.03711323  0.12075462    -2.18700
O129        O  0.38560722  0.43990640  0.14225798    -0.67400
O130        O  0.41375451  0.49394115  0.11881832    -0.52000
C131        C  0.38687605  0.46180198  0.12384872     0.71400
O132        O  0.45690273  0.98840623  0.28273722    -0.60300
O133        O  0.99091488  0.47721756  0.28839948    -0.52300
C134        C  0.47955252  0.49290327  0.29708541     0.73200
O135        O  0.43752907  0.04869982  0.22360776    -0.71700
O136        O  0.44740956  0.05616104  0.15958984    -0.50400
C137        C  0.43459078  0.05816559  0.19345032     0.74600
O138        O  0.41726954  0.39396267  0.21215629    -0.67000
O139        O  0.46953846  0.41724102  0.23398076    -0.54200
C140        C  0.43766742  0.39157949  0.22777901     0.72900
Zr141      Zr  0.42200886  0.43913054  0.18144923     2.77500
O142        O  0.37318857  0.42145164  0.23108038    -0.97800
O143        O  0.38637521  0.38502205  0.14478979    -0.78600
Zr144      Zr  0.46994848  0.03017535  0.24012596     2.70100
O145        O  0.43274993  0.53059917  0.29585927    -0.79800
O146        O  0.01456644  0.08932540  0.26822878    -0.98900
Zr147      Zr  0.00813583  0.47982593  0.22122982     2.21500
Zr148      Zr  0.47396852  0.02828788  0.13461737     2.11100
O149        O  0.43499310  0.49502987  0.18985772    -2.47600
O150        O  0.45468083  0.47263448  0.23202714    -0.79600
O151        O  0.46080426  0.47221428  0.12911694    -0.71800
O152        O  0.02434334  0.03825658  0.22814202    -2.32800
O153        O  0.47588256  0.44625880  0.16805486    -2.29000
O154        O  0.00768851  0.06355660  0.18569535    -0.73600
H155        H  0.04361395  0.05206091  0.09931525     0.78400
H156        H  0.03987632  0.05245090  0.24739208     0.79500
H157        H  0.41284740  0.49121398  0.19303739     0.81700
H158        H  0.47166770  0.42429249  0.16406420     0.79300
H159        H  0.08779986  0.12029403  0.23285069     0.42400
H160        H  0.02817654  0.10496847  0.24629595     0.41300
H161        H  0.40807384  0.51154423  0.29078485     0.41000
H162        H  0.37465103  0.40910387  0.24959981     0.38900
H163        H  0.39884277  0.39065069  0.11858149     0.42100
H164        H  0.45743274  0.41233918  0.09018976     0.36900
H165        H  0.08314368  0.00930942  0.07807857     0.43000
H166        H  0.10239375  0.06668127  0.10794839     0.39400
H167        H  0.38017106  0.44346723  0.24453218     0.44300
H168        H  0.98611061  0.41026799  0.09268056     0.43000
H169        H  0.11070708  0.10299761  0.10721935     0.43200
H170        H  0.49790425  0.09244924  0.28598387     0.43500
C171        C  0.16161606  0.35117224  0.31920377     0.30000
C172        C  0.16309825  0.35560179  0.39860327     0.30000
C173        C  0.14778647  0.36954287  0.34348883    -0.06200
C174        C  0.14133812  0.31666350  0.34010386    -0.07000
C175        C  0.19838488  0.37208722  0.33340650    -0.06900
C176        C  0.14702779  0.37032080  0.38339318    -0.06200
C177        C  0.14140646  0.31895932  0.37982620    -0.07000
C178        C  0.19873513  0.37382358  0.37322805    -0.06900
C179        C  0.12985133  0.38370882  0.39884756    -0.32300
N180        N  0.12299396  0.39359317  0.37014229     0.14200
C181        C  0.13468669  0.38610145  0.33637926    -0.32300
H182        H  0.13283381  0.39155946  0.30879016     0.16200
C183        C  0.12076582  0.28551708  0.39246214    -0.31300
N184        N  0.10967702  0.26336755  0.36199384     0.12900
C185        C  0.12219451  0.28180171  0.32975798    -0.31300
C186        C  0.23327579  0.39356848  0.37998644    -0.31600
N187        N  0.25394228  0.40404196  0.34608335     0.13400
H188        H  0.24277975  0.39965492  0.40750556     0.16100
C189        C  0.23331476  0.39179179  0.31758423    -0.31600
H190        H  0.24339504  0.39719771  0.28779834     0.16100
H191        H  0.11780360  0.27068151  0.30115858     0.16100
H192        H  0.12225962  0.38576705  0.42873110     0.16100
H193        H  0.11458419  0.27745320  0.42158264     0.16100
C194        C  0.15867490  0.34877722  0.06966608     0.30000
C195        C  0.15914640  0.34699335  0.14819911     0.30000
C196        C  0.14126293  0.36275510  0.09720726    -0.06200
C197        C  0.13851123  0.31241284  0.08681976    -0.07000
C198        C  0.19492488  0.36987811  0.08455660    -0.06900
C199        C  0.14232920  0.36244576  0.13654008    -0.06200
C200        C  0.13955489  0.31186822  0.12593111    -0.07000
C201        C  0.19504198  0.36960726  0.12387225    -0.06900
C202        C  0.13022996  0.37995330  0.15519559    -0.32300
N203        N  0.11989933  0.38921416  0.12949391     0.14200
C204        C  0.12549516  0.37783976  0.09429685    -0.32300
H205        H  0.11825390  0.38007395  0.06846068     0.16200
C206        C  0.12195062  0.27773245  0.13487414    -0.31300
N207        N  0.10983156  0.25747458  0.10295541     0.12900
C208        C  0.11849258  0.27801023  0.07392644    -0.31300
C209        C  0.22946963  0.39345357  0.13112740    -0.31600
N210        N  0.25028265  0.40612051  0.09764345     0.13400
H211        H  0.23913536  0.40061353  0.15865208     0.16100
C212        C  0.22970463  0.39210605  0.06889691    -0.31600
H213        H  0.23937427  0.39728948  0.03896283     0.16100
H214        H  0.11185809  0.26857243  0.04524774     0.16100
H215        H  0.13003047  0.38659314  0.18529446     0.16100
H216        H  0.11924205  0.26838588  0.16228036     0.16100
C217        C  0.15892322  0.34459401  0.19222932    -0.06200
C218        C  0.13053169  0.33853005  0.21826750    -0.17300
C219        C  0.12906147  0.33763936  0.25828368     0.11000
C220        C  0.15862370  0.34660228  0.27485958    -0.06100
C221        C  0.18390310  0.34672632  0.24868247    -0.17300
C222        C  0.18336151  0.34392142  0.20853337     0.11100
S223        S  0.08663546  0.32116613  0.28462627    -0.32300
S224        S  0.21181249  0.33498290  0.18143314    -0.32300
H225        H  0.19185676  0.31727044  0.15081284     0.29100
H226        H  0.08893665  0.30773705  0.31528328     0.29100
H227        H  0.10787034  0.33235732  0.20723330     0.19700
H228        H  0.20295494  0.34627212  0.25952690     0.19700
C229        C  0.16521502  0.35702003  0.44292915    -0.06200
C230        C  0.16806883  0.33353012  0.45757363    -0.17300
C231        C  0.16810145  0.33131274  0.49693271     0.11000
C232        C  0.16179216  0.35138672  0.02495248    -0.06100
C233        C  0.16543550  0.37860400  0.50970409    -0.17300
C234        C  0.16896321  0.38290347  0.46991892     0.11100
S235        S  0.18014777  0.30519899  0.50724902    -0.32300
S236        S  0.18565069  0.42550196  0.45658437    -0.32300
H237        H  0.20368438  0.42582708  0.42132873     0.29100
H238        H  0.19616607  0.32396324  0.04010907     0.29100
H239        H  0.17229449  0.31762806  0.43771027     0.19700
H240        H  0.16863378  0.39939943  0.02891013     0.19700
C241        C  0.06204361  0.14970154  0.10724321    -0.06200
C242        C  0.09846045  0.17563349  0.10973749    -0.17300
C243        C  0.11505855  0.21092134  0.10572183     0.11000
C244        C  0.09514345  0.22133269  0.09958254    -0.06100
C245        C  0.05977663  0.19576589  0.09324802    -0.17300
C246        C  0.04296699  0.16013201  0.09688652     0.11100
S247        S  0.16177346  0.24170629  0.10941792    -0.32300
S248        S  0.49839469  0.13059355  0.08910530    -0.35700
H249        H  0.48850347  0.11494411  0.12420455     0.29100
H250        H  0.16854865  0.26698223  0.08629908     0.29100
H251        H  0.11423278  0.16855108  0.11587588     0.19700
H252        H  0.04469738  0.20378419  0.08752900     0.19700
C253        C  0.28740715  0.42411386  0.09408620    -0.06200
C254        C  0.29953454  0.40465899  0.08296898    -0.17300
C255        C  0.33281731  0.41706695  0.09032930     0.11000
C256        C  0.35447398  0.44973429  0.10911085    -0.06100
C257        C  0.34350436  0.47050106  0.11703687    -0.17300
C258        C  0.31003496  0.45782383  0.11009659     0.11100
S259        S  0.34554834  0.38958852  0.07628293    -0.32300
S260        S  0.29633177  0.48441652  0.12512021    -0.32300
H261        H  0.26918902  0.46764206  0.10157655     0.29100
H262        H  0.38190799  0.41713006  0.06937247     0.29100
H263        H  0.28188377  0.37859445  0.07097852     0.19700
H264        H  0.36016106  0.49584596  0.13095641     0.19700
C265        C  0.06858773  0.43629353  0.15731828    -0.06200
C266        C  0.09141638  0.44425835  0.12323280    -0.17300
C267        C  0.11021312  0.43106235  0.11455915     0.11000
C268        C  0.10441927  0.40687595  0.13898340    -0.06100
C269        C  0.08277039  0.39994224  0.17375672    -0.17300
C270        C  0.06555427  0.41477871  0.18363117     0.11100
S271        S  0.14334352  0.44875502  0.07374363    -0.32300
S272        S  0.04101508  0.40515307  0.23048671    -0.32300
H273        H  0.51302294  0.39814025  0.21950256     0.29100
H274        H  0.16737174  0.44850127  0.09032398     0.29100
H275        H  0.09579824  0.46212585  0.10354307     0.19700
H276        H  0.07864561  0.38220311  0.19337388     0.19700
C277        C  0.06282107  0.15975920  0.38571020    -0.06200
C278        C  0.04244884  0.17136779  0.39204940    -0.17300
C279        C  0.05670858  0.20484401  0.38186305     0.11000
C280        C  0.09176592  0.22695580  0.36453236    -0.06100
C281        C  0.11163223  0.21494466  0.35658323    -0.17300
C282        C  0.09755637  0.18154425  0.36707735     0.11100
S283        S  0.02980262  0.21882728  0.39313512    -0.32300
S284        S  0.12398273  0.16697150  0.35631933    -0.32300
H285        H  0.15243328  0.19566603  0.33453488     0.29100
H286        H  0.04806147  0.24497221  0.36579853     0.29100
H287        H  0.01560130  0.15457992  0.40585922     0.19700
H288        H  0.13876508  0.23254647  0.34385884     0.19700
C289        C  0.29138970  0.42298832  0.34178523    -0.06200
C290        C  0.31272545  0.45714924  0.35645712    -0.17300
C291        C  0.34852044  0.47457236  0.35935789     0.11000
C292        C  0.36315180  0.45703349  0.34767905    -0.06100
C293        C  0.34217955  0.42381356  0.33003575    -0.17300
C294        C  0.30653488  0.40657858  0.32728614     0.11100
S295        S  0.37361160  0.51757357  0.38138316    -0.32300
S296        S  0.28106477  0.36263571  0.30789079    -0.32300
H297        H  0.25005737  0.34970566  0.33291244     0.29100
H298        H  0.34839555  0.52297278  0.38267180     0.29100
H299        H  0.30061951  0.46935633  0.36742719     0.19700
H300        H  0.35298629  0.41010664  0.32069958     0.19700
C301        C  0.07716953  0.44493785  0.38844287    -0.06200
C302        C  0.05919506  0.41185074  0.40357004    -0.17300
C303        C  0.07318236  0.39398565  0.39671850     0.11000
C304        C  0.10628524  0.40963874  0.37487241    -0.06100
C305        C  0.12417416  0.44240612  0.35923832    -0.17300
C306        C  0.11026201  0.46047198  0.36620712     0.11100
S307        S  0.04701774  0.35079426  0.41539316    -0.32300
S308        S  0.13671252  0.00341802  0.34774551    -0.32300
H309        H  0.12883467  0.01786859  0.38021917     0.29100
H310        H  0.05893651  0.33760110  0.38562067     0.29100
H311        H  0.03358986  0.39939966  0.42022554     0.19700
H312        H  0.14982849  0.45452065  0.34283304     0.19700
C313        C  0.38139870  0.10309365  0.21495363    -0.06200
C314        C  0.36349727  0.06849123  0.22463108    -0.17300
C315        C  0.37977555  0.05273029  0.21646954     0.11000
C316        C  0.41491693  0.07211767  0.19856301    -0.06100
C317        C  0.43275939  0.10676561  0.18889541    -0.17300
C318        C  0.41649369  0.12251512  0.19721180     0.11100
S319        S  0.35435324  0.00789538  0.22959570    -0.32300
S320        S  0.44243817  0.16802810  0.18675968    -0.32300
H321        H  0.42646834  0.17603725  0.21788759     0.29100
H322        H  0.36629833  0.49625732  0.20092454     0.29100
H323        H  0.33654691  0.05365504  0.23827204     0.19700
H324        H  0.46014068  0.12230027  0.17680021     0.19700
C325        C  0.39567972  0.28689948  0.24920872    -0.06200
C326        C  0.42279232  0.30594554  0.21953332    -0.17300
C327        C  0.43607957  0.33959915  0.21179932     0.11000
C328        C  0.42457427  0.35636654  0.23616535    -0.06100
C329        C  0.39918382  0.33848067  0.26744754    -0.17300
C330        C  0.38396094  0.30366774  0.27368390     0.11100
S331        S  0.46423384  0.35805857  0.16772469    -0.32300
S332        S  0.34757959  0.28136175  0.31076792    -0.32300
H333        H  0.32594655  0.25162575  0.28791358     0.29100
H334        H  0.44304218  0.36462657  0.15536599     0.29100
H335        H  0.43161913  0.29332730  0.20022583     0.19700
H336        H  0.38979610  0.35103985  0.28583665     0.19700
C337        C  0.12776279  0.05940469  0.24619105    -0.06200
C338        C  0.13890067  0.03881350  0.23777125    -0.17300
C339        C  0.17290702  0.05205234  0.24345520     0.11000
C340        C  0.19592484  0.08628644  0.25812302    -0.06100
C341        C  0.18363424  0.10550684  0.26993159    -0.17300
C342        C  0.14971112  0.09242323  0.26397944     0.11100
S343        S  0.18643333  0.02521122  0.22927000    -0.32300
S344        S  0.13482601  0.11812856  0.27834222    -0.32300
H345        H  0.16512655  0.14614345  0.29489104     0.29100
H346        H  0.21462370  0.04316274  0.25149928     0.29100
H347        H  0.12186143  0.01317886  0.22454455     0.19700
H348        H  0.20166012  0.13174336  0.28125555     0.19700
C349        C  0.41289939  0.06984988  0.46157222    -0.06200
C350        C  0.42767501  0.09988776  0.44109922    -0.17300
C351        C  0.41388417  0.11801701  0.44736878     0.11000
C352        C  0.38427021  0.10603036  0.47453525    -0.06100
C353        C  0.36952101  0.07640811  0.49542373    -0.17300
C354        C  0.38301591  0.05787535  0.48890004     0.11100
S355        S  0.43587909  0.15691415  0.42063536    -0.32300
S356        S  0.35946071  0.01825259  0.51475492    -0.32300
H357        H  0.36145405  0.50135446  0.49045281     0.29100
H358        H  0.42835903  0.17456932  0.44919404     0.29100
H359        H  0.45070899  0.10988047  0.42034880     0.19700
H360        H  0.34639862  0.06690293  0.51590803     0.19700
C361        C  0.42199059  0.35068056  0.46425218    -0.06200
C362        C  0.44120414  0.33777969  0.45968444    -0.17300
C363        C  0.42524808  0.30370457  0.46988990     0.11000
C364        C  0.38936289  0.28197267  0.48502330    -0.06100
C365        C  0.36958769  0.29638670  0.99337560    -0.17300
C366        C  0.38570041  0.33070575  0.98417646     0.11100
S367        S  0.45149951  0.28891042  0.46174331    -0.32300
S368        S  0.35915765  0.34513169  0.99377293    -0.32300
H369        H  0.38679533  0.37947863  0.00438740     0.29100
H370        H  0.43085141  0.26181504  0.48797769     0.29100
H371        H  0.46859346  0.35408652  0.44737123     0.19700
H372        H  0.34173463  0.27925695  0.00382781     0.19700
C373        C  0.12151730  0.05110575  0.50511126    -0.06200
C374        C  0.14504574  0.08554613  0.02153350    -0.17300
C375        C  0.18014631  0.10110462  0.02526391     0.11000
C376        C  0.19189121  0.08133215  0.51384611    -0.06100
C377        C  0.16894266  0.04671286  0.50099681    -0.17300
C378        C  0.13380493  0.03116592  0.49684177     0.11100
S379        S  0.20744231  0.14565026  0.04265665    -0.32300
S380        S  0.10678883  0.98730140  0.47728502    -0.32300
H381        H  0.12832251  0.97867284  0.48295983     0.29100
H382        H  0.23722566  0.15664741  0.01626876     0.29100
H383        H  0.13571823  0.10075968  0.02904725     0.19700
H384        H  0.17939968  0.03267754  0.49195091     0.19700
C385        C  0.32543885  0.15843900  0.32686126    -0.06200
C386        C  0.29958250  0.15771503  0.35250821    -0.17300
C387        C  0.29738634  0.15706051  0.39267513     0.11000
C388        C  0.32020197  0.15437716  0.40959926    -0.06100
C389        C  0.34921780  0.16067713  0.38435270    -0.17300
C390        C  0.35296057  0.16419927  0.34444662     0.11100
S391        S  0.26689363  0.16359039  0.41916385    -0.32300
S392        S  0.39604841  0.18105804  0.31992051    -0.32300
H393        H  0.39597807  0.19843832  0.29165602     0.29100
H394        H  0.28555715  0.18172628  0.45052763     0.29100
H395        H  0.28199305  0.16016464  0.34135377     0.19700
H396        H  0.37125542  0.16616778  0.39602075     0.19700
C397        C  0.32189835  0.15781825  0.07770598    -0.06200
C398        C  0.32254173  0.18311038  0.10209126    -0.17300
C399        C  0.32020727  0.18289048  0.14237355     0.11000
C400        C  0.32206352  0.15955028  0.16007674    -0.06100
C401        C  0.31548369  0.13114640  0.13648195    -0.17300
C402        C  0.31364315  0.12910953  0.09667645     0.11100
S403        S  0.30825615  0.20875019  0.16822366    -0.32300
S404        S  0.29573438  0.08755488  0.07224671    -0.32300
H405        H  0.29501898  0.07059963  0.10189227     0.29100
H406        H  0.29042616  0.18826161  0.20069017     0.29100
H407        H  0.32108160  0.20126554  0.09020734     0.19700
H408        H  0.30931755  0.10904747  0.14978514     0.19700
C409        C  0.32219732  0.15757935  0.53291667     0.30000
C410        C  0.32138733  0.15511069  0.95411888     0.30000
C411        C  0.34138500  0.14481188  0.50754624    -0.06200
C412        C  0.28537595  0.13352348  0.51899558    -0.07000
C413        C  0.33936984  0.19224827  0.51280005    -0.06900
C414        C  0.34113840  0.14368478  0.96801317    -0.06200
C415        C  0.28566010  0.13199278  0.97926275    -0.07000
C416        C  0.33900311  0.19101049  0.97401746    -0.06900
C417        C  0.35551495  0.12754989  0.95198701    -0.32300
N418        N  0.36825586  0.12292450  0.97953196     0.14200
C419        C  0.36005579  0.13363770  0.51352608    -0.32300
H420        H  0.36687444  0.13287083  0.54055517     0.16200
C421        C  0.25057892  0.10923753  0.97364765    -0.31300
N422        N  0.22913000  0.09867046  0.50873704     0.12900
C423        C  0.25102298  0.11393673  0.53634554    -0.31300
C424        C  0.35723000  0.22403368  0.96111903    -0.31600
N425        N  0.37021547  0.24530928  0.48879296     0.13400
H426        H  0.36149897  0.23122810  0.93195555     0.16100
C427        C  0.36014098  0.22783844  0.52140094    -0.31600
H428        H  0.36856096  0.24049353  0.54872072     0.16100
H429        H  0.24259400  0.11214137  0.56666560     0.16100
H430        H  0.35564028  0.11847212  0.92274656     0.16100
H431        H  0.24001494  0.10136127  0.94659165     0.16100
C432        C  0.32494299  0.15992348  0.70369238     0.30000
C433        C  0.32549325  0.15814373  0.78225827     0.30000
C434        C  0.33932073  0.14217864  0.71552376    -0.06200
C435        C  0.34771584  0.19516674  0.72515862    -0.07000
C436        C  0.28931615  0.14082275  0.72874738    -0.06900
C437        C  0.33862538  0.14023823  0.75497727    -0.06200
C438        C  0.34723002  0.19441440  0.76459016    -0.07000
C439        C  0.28917176  0.13965554  0.76807651    -0.06900
C440        C  0.35051832  0.12163869  0.75838078    -0.32300
N441        N  0.36094196  0.11506873  0.72302096     0.14200
C442        C  0.35423398  0.12731588  0.69676038    -0.32300
H443        H  0.36069287  0.12613302  0.66632008     0.16200
C444        C  0.36698822  0.22862296  0.77792337    -0.31300
N445        N  0.37969174  0.24968680  0.74783307     0.12900
C446        C  0.36948222  0.22954405  0.71565401    -0.31300
C447        C  0.25409752  0.11903901  0.78341270    -0.31600
N448        N  0.23396136  0.10871692  0.75497218     0.13400
H449        H  0.24356253  0.11130578  0.81268926     0.16100
C450        C  0.25499170  0.12165609  0.72163504    -0.31600
H451        H  0.24585280  0.11753438  0.69429955     0.16100
H452        H  0.37662158  0.23949642  0.68732692     0.16100
H453        H  0.35239906  0.11409543  0.78452651     0.16100
H454        H  0.37113772  0.23742047  0.80728180     0.16100
O455        O  0.06075589  0.47716742  0.87196355    -0.75300
O456        O  0.04202702  0.45666172  0.93196692    -0.54200
C457        C  0.05899476  0.46082785  0.89890955     0.78400
O458        O  0.06587537  0.12163155  0.91728543    -0.59900
O459        O  0.01991799  0.10098848  0.88415748    -0.53000
C460        C  0.04976431  0.12572191  0.89603717     0.70400
O461        O  0.09219501  0.06580945  0.97802773    -0.74500
O462        O  0.06310803  0.00893711  0.99136370    -0.55100
C463        C  0.09026753  0.04136078  0.99131366     0.76400
O464        O  0.03888042  0.53971758  0.81537582    -0.59600
O465        O  0.49941669  0.04886029  0.82442955    -0.52800
C466        C  0.50927835  0.03097151  0.81033279     0.73000
Zr467      Zr  0.03651319  0.50616180  0.86150616     2.54700
O468        O  0.10000475  0.05062582  0.84048501    -0.80200
O469        O  0.53558837  0.47064951  0.80426639    -0.93600
Zr470      Zr  0.05634074  0.07324429  0.94717914     2.64700
O471        O  0.11928681  0.11503584  0.92671832    -0.98600
O472        O  0.06392748  0.10876585  0.00464468    -0.80600
O473        O  0.05522896  0.02509137  0.92208080    -0.84000
O474        O  0.03930436  0.05562502  0.88540528    -2.18700
O475        O  0.39779610  0.44613905  0.87070945    -0.67400
O476        O  0.42353541  0.50311574  0.86304734    -0.52000
C477        C  0.39778928  0.47028071  0.86042095     0.71400
O478        O  0.44068558  0.95656157  0.51193586    -0.60300
O479        O  0.97871223  0.44871635  0.51915678    -0.52300
C480        C  0.46160216  0.45915184  0.53171485     0.73200
O481        O  0.42666433  0.03478886  0.98021134    -0.71700
O482        O  0.44816468  0.05798374  0.92141155    -0.50400
C483        C  0.42980894  0.05265841  0.95394617     0.74600
O484        O  0.42294413  0.39322897  0.93621736    -0.67000
O485        O  0.47062449  0.41225371  0.96501498    -0.54200
C486        C  0.43946787  0.38825103  0.95566096     0.72900
Zr487      Zr  0.43383101  0.44163056  0.90466477     2.77500
O488        O  0.37309235  0.40217906  0.93533184    -0.97800
O489        O  0.42356696  0.40372087  0.84893601    -0.78600
Zr490      Zr  0.45513902  0.00995952  0.99126577     2.70100
O491        O  0.40431447  0.48676189  0.53708680    -0.79800
O492        O  0.98144381  0.05349365  0.54122851    -0.98900
Zr493      Zr  0.00863947  0.47567285  0.96107916     2.21500
Zr494      Zr  0.48012147  0.03736703  0.89037918     2.11100
O495        O  0.43521712  0.49011671  0.93030066    -2.47600
O496        O  0.45311700  0.46204373  0.96422683    -0.79600
O497        O  0.48054441  0.49055202  0.87426629    -0.71800
O498        O  0.01340562  0.02621648  0.98748346    -2.32800
O499        O  0.49079788  0.45565390  0.89841792    -2.29000
O500        O  0.99945909  0.05905177  0.95149498    -0.73600
H501        H  0.05639789  0.07575385  0.86961567     0.78400
H502        H  0.02163279  0.03306145  0.51095188     0.79500
H503        H  0.41238345  0.48483051  0.93201071     0.81700
H504        H  0.48929240  0.43538541  0.88962975     0.79300
H505        H  0.06024503  0.12509817  0.99777766     0.42400
H506        H  0.99548851  0.07601535  0.52833390     0.41300
H507        H  0.38382512  0.47049920  0.52256668     0.41000
H508        H  0.36661642  0.41737461  0.94568315     0.38900
H509        H  0.44739075  0.41427766  0.83528995     0.42100
H510        H  0.52137882  0.44643866  0.81297490     0.36900
H511        H  0.11205378  0.05528266  0.86286603     0.43000
H512        H  0.12119333  0.11435510  0.89857223     0.39400
H513        H  0.35840704  0.38865840  0.91425063     0.44300
H514        H  0.06070291  0.48005213  0.79940803     0.43000
H515        H  0.12563276  0.13818678  0.93465423     0.43200
H516        H  0.46155499  0.05183697  0.55672042     0.43500
O517        O  0.04437425  0.45874925  0.63324322    -0.75300
O518        O  0.04023153  0.45692987  0.69733076    -0.54200
C519        C  0.05018307  0.45181599  0.66329747     0.78400
O520        O  0.06322549  0.11192705  0.64176485    -0.59900
O521        O  0.51631462  0.08747366  0.60912085    -0.53000
C522        C  0.04634877  0.11392190  0.61949719     0.70400
O523        O  0.09761635  0.06901030  0.71076927    -0.74500
O524        O  0.06752019  0.01769281  0.74151522    -0.55100
C525        C  0.09534928  0.04873665  0.73299675     0.76400
O526        O  0.00798365  0.50173555  0.56580173    -0.59600
O527        O  0.46044412  0.99932631  0.57468565    -0.52800
C528        C  0.47720244  0.98843673  0.55865468     0.73000
Zr529      Zr  0.01477530  0.48019297  0.61611618     2.54700
O530        O  0.06129673  0.99224709  0.56561106    -0.80200
O531        O  0.47984931  0.42207037  0.58198613    -0.93600
Zr532      Zr  0.06018123  0.06850667  0.67274828     2.64700
O533        O  0.11058791  0.08793911  0.62476065    -0.98600
O534        O  0.09652589  0.12426602  0.70645646    -0.80600
O535        O  0.04781373  0.01317177  0.66613016    -0.84000
O536        O  0.02891717  0.03659008  0.62036923    -2.18700
O537        O  0.38565061  0.43805467  0.64284976    -0.67400
O538        O  0.41416672  0.49187499  0.61857747    -0.52000
C539        C  0.38714461  0.45983703  0.62402863     0.71400
O540        O  0.45713977  0.98864108  0.78334007    -0.60300
O541        O  0.99059570  0.47646503  0.78813918    -0.52300
C542        C  0.48101143  0.49342451  0.79685223     0.73200
O543        O  0.43571936  0.04647489  0.72426335    -0.71700
O544        O  0.44667776  0.05521301  0.66044143    -0.50400
C545        C  0.43284976  0.05607477  0.69415404     0.74600
O546        O  0.41820626  0.39306670  0.71164289    -0.67000
O547        O  0.47031167  0.41669777  0.73406747    -0.54200
C548        C  0.43863713  0.39089536  0.72746318     0.72900
Zr549      Zr  0.42285326  0.43822048  0.68127858     2.77500
O550        O  0.37429820  0.41945638  0.73150256    -0.97800
O551        O  0.38836099  0.38476749  0.64324249    -0.78600
Zr552      Zr  0.47041031  0.03043737  0.74056068     2.70100
O553        O  0.43511992  0.53211062  0.79513343    -0.79800
O554        O  0.01304052  0.08843824  0.76777320    -0.98900
Zr555      Zr  0.00900586  0.48031114  0.72115113     2.21500
Zr556      Zr  0.47454541  0.02872888  0.63495272     2.11100
O557        O  0.43581186  0.49418116  0.68941064    -2.47600
O558        O  0.45540990  0.47206465  0.73187618    -0.79600
O559        O  0.46113278  0.47105481  0.62847710    -0.71800
O560        O  0.02407969  0.03769608  0.72801165    -2.32800
O561        O  0.47655704  0.44529407  0.66784828    -2.29000
O562        O  0.00731234  0.06277065  0.68533981    -0.73600
H563        H  0.04360768  0.05114663  0.59862041     0.78400
H564        H  0.03927369  0.05183671  0.74756021     0.79500
H565        H  0.41367300  0.49037712  0.69272592     0.81700
H566        H  0.47239604  0.42328768  0.66395079     0.79300
H567        H  0.08492120  0.11969901  0.73301652     0.42400
H568        H  0.02597312  0.10427292  0.74595383     0.41300
H569        H  0.41024097  0.51330927  0.79067637     0.41000
H570        H  0.35566452  0.39462058  0.72520076     0.38900
H571        H  0.36457871  0.37042524  0.65788386     0.42100
H572        H  0.45509749  0.41117479  0.59266516     0.36900
H573        H  0.08344245  0.00935234  0.57732405     0.43000
H574        H  0.10416352  0.06646931  0.61044444     0.39400
H575        H  0.38282944  0.41886664  0.75449163     0.44300
H576        H  0.98390906  0.40906791  0.59621437     0.43000
H577        H  0.11005523  0.10122443  0.60653137     0.43200
H578        H  0.49958556  0.09336922  0.78580021     0.43500
C579        C  0.16236561  0.35257441  0.81930885     0.30000
C580        C  0.16405190  0.35649824  0.89859459     0.30000
C581        C  0.14805965  0.37033959  0.84408421    -0.06200
C582        C  0.14242965  0.31795776  0.83979744    -0.07000
C583        C  0.19925731  0.37363823  0.83337830    -0.06900
C584        C  0.14753399  0.37090154  0.88389732    -0.06200
C585        C  0.14259282  0.31994233  0.87949714    -0.07000
C586        C  0.19970674  0.37512258  0.87313909    -0.06900
C587        C  0.12963207  0.38334110  0.90001228    -0.32300
N588        N  0.12177364  0.39269115  0.87179657     0.14200
C589        C  0.13381999  0.38597875  0.83770202    -0.32300
H590        H  0.13164296  0.39154149  0.81036783     0.16200
C591        C  0.12256901  0.28638326  0.89162454    -0.31300
N592        N  0.11182955  0.26457363  0.86086777     0.12900
C593        C  0.12386308  0.28326967  0.82895488    -0.31300
C594        C  0.23426488  0.39429685  0.87969105    -0.31600
N595        N  0.25487624  0.40467392  0.84572882     0.13400
H596        H  0.24380883  0.40002503  0.90712324     0.16100
C597        C  0.23417902  0.39292886  0.81739174    -0.31600
H598        H  0.24419461  0.39834754  0.78759453     0.16100
H599        H  0.11977851  0.27246980  0.80021044     0.16100
H600        H  0.12241161  0.38526562  0.93005205     0.16100
H601        H  0.11672055  0.27800334  0.92053720     0.16100
C602        C  0.15945388  0.34900246  0.56959569     0.30000
C603        C  0.16047911  0.34826226  0.64816741     0.30000
C604        C  0.14208885  0.36313431  0.59691008    -0.06200
C605        C  0.13953202  0.31288847  0.58728930    -0.07000
C606        C  0.19589488  0.37038021  0.58420405    -0.06900
C607        C  0.14358251  0.36347840  0.63619959    -0.06200
C608        C  0.14080445  0.31286655  0.62644328    -0.07000
C609        C  0.19624695  0.37061995  0.62356825    -0.06900
C610        C  0.13156828  0.38111539  0.65456257    -0.32300
N611        N  0.12057932  0.38960677  0.62879943     0.14200
C612        C  0.12579391  0.37765079  0.59381270    -0.32300
H613        H  0.11788667  0.37899895  0.56798503     0.16200
C614        C  0.12336856  0.27888364  0.63594838    -0.31300
N615        N  0.11115088  0.25821115  0.60430189     0.12900
C616        C  0.11960008  0.27834467  0.57492166    -0.31300
C617        C  0.23076865  0.39404233  0.63048859    -0.31600
N618        N  0.25142874  0.40592357  0.59681290     0.13400
H619        H  0.24059211  0.40138988  0.65793764     0.16100
C620        C  0.23066426  0.39185933  0.56821442    -0.31600
H621        H  0.24017262  0.39640010  0.53818283     0.16100
H622        H  0.11277715  0.26851852  0.54637577     0.16100
H623        H  0.13188366  0.38834988  0.68451084     0.16100
H624        H  0.12086074  0.26993884  0.66353745     0.16100
C625        C  0.16026684  0.34628589  0.69227132    -0.06200
C626        C  0.13182787  0.34038221  0.71810870    -0.17300
C627        C  0.13008753  0.33940918  0.75815216     0.11000
C628        C  0.15947779  0.34820704  0.77496210    -0.06100
C629        C  0.18465694  0.34802623  0.74899328    -0.17300
C630        C  0.18440700  0.34534924  0.70883439     0.11100
S631        S  0.08736023  0.32239363  0.78403855    -0.32300
S632        S  0.21283604  0.33622568  0.68215014    -0.32300
H633        H  0.19337624  0.31893051  0.65112926     0.29100
H634        H  0.08985516  0.30919324  0.81478251     0.29100
H635        H  0.10922688  0.33417359  0.70688901     0.19700
H636        H  0.20339978  0.34721772  0.76002973     0.19700
C637        C  0.16604830  0.35783662  0.94291956    -0.06200
C638        C  0.16866513  0.33423544  0.95762301    -0.17300
C639        C  0.16812610  0.33169330  0.99703456     0.11000
C640        C  0.16206282  0.35117929  0.52489384    -0.06100
C641        C  0.16553482  0.37903859  0.00977702    -0.17300
C642        C  0.16963722  0.38364479  0.96994699     0.11100
S643        S  0.17986140  0.30537006  0.00752475    -0.32300
S644        S  0.18663321  0.42637993  0.95664131    -0.32300
H645        H  0.20452977  0.42658918  0.92133263     0.29100
H646        H  0.19628408  0.32369787  0.53994308     0.29100
H647        H  0.17322728  0.31855582  0.93779453     0.19700
H648        H  0.16878244  0.39911115  0.52876207     0.19700
C649        C  0.06308175  0.15006342  0.60760024    -0.06200
C650        C  0.09940323  0.17600943  0.61095376    -0.17300
C651        C  0.11602588  0.21144467  0.60782814     0.11000
C652        C  0.09628430  0.22199410  0.60143500    -0.06100
C653        C  0.06105771  0.19650671  0.59449183    -0.17300
C654        C  0.04421472  0.16077868  0.59745510     0.11100
S655        S  0.16251321  0.24217640  0.61291421    -0.32300
S656        S  0.49917082  0.13170143  0.58856092    -0.35700
H657        H  0.48819267  0.11509701  0.62325591     0.29100
H658        H  0.16995563  0.26781610  0.58983170     0.29100
H659        H  0.11505798  0.16881172  0.61715884     0.19700
H660        H  0.04611686  0.20462949  0.58860429     0.19700
C661        C  0.28846954  0.42346126  0.59326531    -0.06200
C662        C  0.30015273  0.40356871  0.58239341    -0.17300
C663        C  0.33307842  0.41534869  0.59035768     0.11000
C664        C  0.35483884  0.44790474  0.60933702    -0.06100
C665        C  0.34429289  0.46900282  0.61720848    -0.17300
C666        C  0.31124042  0.45696466  0.60967661     0.11100
S667        S  0.34508544  0.38717251  0.57695658    -0.32300
S668        S  0.29821320  0.48412672  0.62457750    -0.32300
H669        H  0.27111174  0.46771348  0.60105010     0.29100
H670        H  0.38168169  0.41413393  0.57098186     0.29100
H671        H  0.28234543  0.37759859  0.57026767     0.19700
H672        H  0.36099221  0.49417691  0.63146203     0.19700
C673        C  0.06981018  0.43722032  0.65709812    -0.06200
C674        C  0.09104187  0.44367794  0.62203038    -0.17300
C675        C  0.10954936  0.43022491  0.61295234     0.11000
C676        C  0.10507181  0.40726471  0.63816926    -0.06100
C677        C  0.08499927  0.40185536  0.67385206    -0.17300
C678        C  0.06818934  0.41707078  0.68400657     0.11100
S679        S  0.14064551  0.44614149  0.57039836    -0.32300
S680        S  0.04616670  0.40993293  0.73199809    -0.32300
H681        H  0.51466839  0.39861330  0.72206428     0.29100
H682        H  0.16608049  0.44759065  0.58618045     0.29100
H683        H  0.09437163  0.46052431  0.60171709     0.19700
H684        H  0.08185018  0.38510401  0.69408400     0.19700
C685        C  0.06633586  0.16124406  0.88412740    -0.06200
C686        C  0.04467581  0.17096675  0.88440747    -0.17300
C687        C  0.05880913  0.20427781  0.87382479     0.11000
C688        C  0.09525736  0.22842401  0.86274560    -0.06100
C689        C  0.11675547  0.21850168  0.86081437    -0.17300
C690        C  0.10268455  0.18503443  0.87104650     0.11100
S691        S  0.02962935  0.21534605  0.87684971    -0.32300
S692        S  0.13126504  0.17303486  0.86632966    -0.32300
H693        H  0.16076845  0.20268975  0.84662775     0.29100
H694        H  0.05062738  0.24253136  0.85072452     0.29100
H695        H  0.01666701  0.15274618  0.89374068     0.19700
H696        H  0.14485088  0.23765031  0.85269118     0.19700
C697        C  0.29240183  0.42377576  0.84132796    -0.06200
C698        C  0.31361524  0.45802164  0.85581867    -0.17300
C699        C  0.34944877  0.47567736  0.85889463     0.11000
C700        C  0.36434371  0.45835359  0.84747734    -0.06100
C701        C  0.34351272  0.42505162  0.82995287    -0.17300
C702        C  0.30781535  0.40755834  0.82703989     0.11100
S703        S  0.37429809  0.51873798  0.88076784    -0.32300
S704        S  0.28278827  0.36361135  0.80763452    -0.32300
H705        H  0.25101835  0.35066494  0.83110258     0.29100
H706        H  0.34801018  0.52295080  0.88467757     0.29100
H707        H  0.30135601  0.47012089  0.86652650     0.19700
H708        H  0.35442955  0.41141113  0.82097204     0.19700
C709        C  0.07627137  0.44430918  0.89138335    -0.06200
C710        C  0.05961161  0.41249477  0.90891852    -0.17300
C711        C  0.07335302  0.39441992  0.90182215     0.11000
C712        C  0.10496556  0.40866435  0.87724106    -0.06100
C713        C  0.12156112  0.44024093  0.85944900    -0.17300
C714        C  0.10793137  0.45850703  0.86667048     0.11100
S715        S  0.04845438  0.35260252  0.92352314    -0.32300
S716        S  0.13486184  0.00137464  0.84368910    -0.32300
H717        H  0.12990635  0.01757313  0.87659233     0.29100
H718        H  0.05779596  0.33751906  0.89328664     0.29100
H719        H  0.03506397  0.40103899  0.92751037     0.19700
H720        H  0.14616642  0.45141538  0.84108168     0.19700
C721        C  0.37871677  0.10003428  0.71481550    -0.06200
C722        C  0.36117003  0.06570046  0.72537357    -0.17300
C723        C  0.37761641  0.05006460  0.71744440     0.11000
C724        C  0.41259785  0.06939274  0.69906010    -0.06100
C725        C  0.42992734  0.10361298  0.68830207    -0.17300
C726        C  0.41353547  0.11920559  0.69625836     0.11100
S727        S  0.35258615  0.00542049  0.73107519    -0.32300
S728        S  0.43918720  0.16432455  0.68426638    -0.32300
H729        H  0.42402949  0.17319295  0.71541960     0.29100
H730        H  0.36667483  0.49603636  0.70499330     0.29100
H731        H  0.33438395  0.05097798  0.73948301     0.19700
H732        H  0.45713164  0.11904538  0.67561364     0.19700
C733        C  0.39776051  0.28665095  0.74818297    -0.06200
C734        C  0.42569054  0.30631729  0.71947730    -0.17300
C735        C  0.43862242  0.33986265  0.71187450     0.11000
C736        C  0.42587086  0.35582175  0.73559867    -0.06100
C737        C  0.39928327  0.33712490  0.76568762    -0.17300
C738        C  0.38431158  0.30235837  0.77147773     0.11100
S739        S  0.46770022  0.35905335  0.66847955    -0.32300
S740        S  0.34581273  0.27856061  0.80592587    -0.32300
H741        H  0.32628787  0.24918575  0.78178308     0.29100
H742        H  0.44591409  0.36427553  0.65493171     0.29100
H743        H  0.43540356  0.29422081  0.70071842     0.19700
H744        H  0.38876638  0.34898782  0.78331554     0.19700
C745        C  0.12792606  0.06165742  0.74790799    -0.06200
C746        C  0.13939357  0.04131263  0.74118622    -0.17300
C747        C  0.17374954  0.05549268  0.74649462     0.11000
C748        C  0.19676826  0.09041606  0.75919960    -0.06100
C749        C  0.18426825  0.10960217  0.76948308    -0.17300
C750        C  0.14996360  0.09557197  0.76388188     0.11100
S751        S  0.18775403  0.02892053  0.73371831    -0.32300
S752        S  0.13476494  0.12121994  0.77634637    -0.32300
H753        H  0.16518295  0.15012653  0.79195800     0.29100
H754        H  0.21683807  0.04830690  0.75472236     0.29100
H755        H  0.12239345  0.01510912  0.72922069     0.19700
H756        H  0.20231174  0.13636338  0.77940698     0.19700
C757        C  0.41241120  0.06945928  0.96142634    -0.06200
C758        C  0.42728093  0.09940425  0.94077128    -0.17300
C759        C  0.41359418  0.11759264  0.94677181     0.11000
C760        C  0.38418585  0.10597415  0.97411047    -0.06100
C761        C  0.36913514  0.07625079  0.99500543    -0.17300
C762        C  0.38235052  0.05744864  0.98848013     0.11100
S763        S  0.43537069  0.15600536  0.91926460    -0.32300
S764        S  0.35817972  0.01740088  0.01374930    -0.32300
H765        H  0.36157763  0.49987971  0.98495160     0.29100
H766        H  0.42893800  0.17441751  0.94789051     0.29100
H767        H  0.45027964  0.10925340  0.92000888     0.19700
H768        H  0.34602984  0.06690345  0.01546368     0.19700
C769        C  0.42156193  0.35248849  0.96839057    -0.06200
C770        C  0.44087986  0.33974630  0.96456122    -0.17300
C771        C  0.42477662  0.30555561  0.97435229     0.11000
C772        C  0.38861792  0.28343898  0.98822157    -0.06100
C773        C  0.37045115  0.29503390  0.49054694    -0.17300
C774        C  0.38639587  0.32915486  0.48087816     0.11100
S775        S  0.45110403  0.29090488  0.96703573    -0.32300
S776        S  0.36004589  0.34377805  0.49128813    -0.32300
H777        H  0.38785771  0.37798925  0.50206934     0.29100
H778        H  0.43150023  0.26574889  0.99549812     0.29100
H779        H  0.46848006  0.35623529  0.95297826     0.19700
H780        H  0.34279343  0.27814259  0.50183831     0.19700
C781        C  0.12284241  0.05194324  0.00517663    -0.06200
C782        C  0.14374343  0.08468218  0.52150869    -0.17300
C783        C  0.17871542  0.10001029  0.52565877     0.11000
C784        C  0.19346630  0.08260974  0.01300662    -0.06100
C785        C  0.17064367  0.04802960  0.00003283    -0.17300
C786        C  0.13534495  0.03222031  0.99640273     0.11100
S787        S  0.20620936  0.14462114  0.54273808    -0.32300
S788        S  0.10811887  0.98814225  0.97739816    -0.32300
H789        H  0.13198085  0.98115037  0.97734127     0.29100
H790        H  0.23550100  0.15549385  0.51555870     0.29100
H791        H  0.13459827  0.10007928  0.52865250     0.19700
H792        H  0.18126652  0.03416918  0.99082758     0.19700
C793        C  0.32629044  0.15895825  0.82672137    -0.06200
C794        C  0.30115235  0.15936086  0.85249473    -0.17300
C795        C  0.29919981  0.15913569  0.89270614     0.11000
C796        C  0.32188900  0.15630123  0.90968441    -0.06100
C797        C  0.35031833  0.16152074  0.88421358    -0.17300
C798        C  0.35361108  0.16420719  0.84417784     0.11100
S799        S  0.26882452  0.16592913  0.91903047    -0.32300
S800        S  0.39596944  0.17913087  0.81912952    -0.32300
H801        H  0.39661655  0.19667043  0.79046026     0.29100
H802        H  0.28595042  0.18196004  0.95169621     0.29100
H803        H  0.28394552  0.16235730  0.84140088     0.19700
H804        H  0.37230159  0.16674691  0.89569425     0.19700
C805        C  0.32119290  0.15723352  0.57749545    -0.06200
C806        C  0.32361766  0.18353784  0.60163200    -0.17300
C807        C  0.32181205  0.18372619  0.64189536     0.11000
C808        C  0.32231223  0.15951369  0.65980438    -0.06100
C809        C  0.31427922  0.13045808  0.63647128    -0.17300
C810        C  0.31210279  0.12825825  0.59672149     0.11100
S811        S  0.31237761  0.21160825  0.66751468    -0.32300
S812        S  0.29344911  0.08650521  0.57244101    -0.32300
H813        H  0.28893063  0.06821907  0.60329814     0.29100
H814        H  0.29439467  0.19186377  0.70048320     0.29100
H815        H  0.32312496  0.20231307  0.58965473     0.19700
H816        H  0.30746464  0.10812242  0.64991795     0.19700
C817        C  0.32294932  0.65867669  0.03235017     0.30000
C818        C  0.32006498  0.65381083  0.45350489     0.30000
C819        C  0.34188147  0.64560935  0.00692131    -0.06200
C820        C  0.28623685  0.63509905  0.01826550    -0.07000
C821        C  0.34051256  0.69354438  0.01247670    -0.06900
C822        C  0.34034866  0.64290487  0.46740080    -0.06200
C823        C  0.28446523  0.63065664  0.47898046    -0.07000
C824        C  0.33757498  0.68985490  0.47299089    -0.06900
C825        C  0.35576070  0.62767575  0.45144156    -0.32300
N826        N  0.36908192  0.62373720  0.47902966     0.14200
C827        C  0.36004838  0.63380024  0.01276135    -0.32300
H828        H  0.36681807  0.63287246  0.03974392     0.16200
C829        C  0.24925687  0.60737013  0.47376466    -0.31300
N830        N  0.23011854  0.60065668  0.00777945     0.12900
C831        C  0.25186591  0.61561976  0.03548953    -0.31300
C832        C  0.35586267  0.72273488  0.45952752    -0.31600
N833        N  0.37024949  0.74674901  0.98939648     0.13400
H834        H  0.35989151  0.72953972  0.43024487     0.16100
C835        C  0.36043043  0.72897281  0.02166499    -0.31600
H836        H  0.36829834  0.74133931  0.04922275     0.16100
H837        H  0.24332261  0.61361566  0.06579190     0.16100
H838        H  0.35615126  0.61871904  0.42218943     0.16100
H839        H  0.23843955  0.59899302  0.44682736     0.16100
C840        C  0.32409236  0.66006590  0.20327106     0.30000
C841        C  0.32458092  0.65835522  0.28185728     0.30000
C842        C  0.33870839  0.64256211  0.21518959    -0.06200
C843        C  0.34656930  0.69536437  0.22478915    -0.07000
C844        C  0.28841181  0.64069887  0.22821309    -0.06900
C845        C  0.33799097  0.64069334  0.25465403    -0.06200
C846        C  0.34612817  0.69463336  0.26421370    -0.07000
C847        C  0.28824151  0.63959401  0.26756270    -0.06900
C848        C  0.34990746  0.62215525  0.25823475    -0.32300
N849        N  0.36025341  0.61540402  0.22294077     0.14200
C850        C  0.35354551  0.62757018  0.19656791    -0.32300
H851        H  0.35993762  0.62622199  0.16614379     0.16200
C852        C  0.36572208  0.72885093  0.27755838    -0.31300
N853        N  0.37814189  0.74994259  0.24754467     0.12900
C854        C  0.36794459  0.72976985  0.21535369    -0.31300
C855        C  0.25314441  0.61858452  0.28276691    -0.31600
N856        N  0.23301708  0.60797940  0.25425342     0.13400
H857        H  0.24255873  0.61071729  0.31199724     0.16100
C858        C  0.25407133  0.62108338  0.22096135    -0.31600
H859        H  0.24493993  0.61679861  0.19357762     0.16100
H860        H  0.37482609  0.73968803  0.18705457     0.16100
H861        H  0.35182928  0.61475718  0.28446422     0.16100
H862        H  0.36995731  0.73761338  0.30690974     0.16100
O863        O  0.06242269  0.97856894  0.37037772    -0.75300
O864        O  0.04204675  0.95625668  0.42959381    -0.54200
C865        C  0.05993518  0.96141598  0.39692174     0.78400
O866        O  0.06465633  0.62126438  0.41873780    -0.59900
O867        O  0.01804064  0.60075210  0.38678311    -0.53000
C868        C  0.04800834  0.62541839  0.39841179     0.70400
O869        O  0.09154830  0.56471198  0.47804550    -0.74500
O870        O  0.06226437  0.50768590  0.49092250    -0.55100
C871        C  0.08945111  0.54006270  0.49114241     0.76400
O872        O  0.03883029  0.03980640  0.31456374    -0.59600
O873        O  0.49790484  0.54690883  0.32318903    -0.52800
C874        C  0.50670438  0.52822558  0.30877413     0.73000
Zr875      Zr  0.03630512  0.00584191  0.36025082     2.54700
O876        O  0.09974726  0.55055859  0.34004007    -0.80200
O877        O  0.53902782  0.97430349  0.30405867    -0.93600
Zr878      Zr  0.05592100  0.57274374  0.44735504     2.64700
O879        O  0.11849926  0.61471806  0.42520011    -0.98600
O880        O  0.06455193  0.60807017  0.50524275    -0.80600
O881        O  0.05491653  0.52474195  0.42182506    -0.84000
O882        O  0.03875083  0.55554428  0.38562019    -2.18700
O883        O  0.39888644  0.94641332  0.37013328    -0.67400
O884        O  0.42400540  0.00330505  0.36321683    -0.52000
C885        C  0.39848884  0.97039861  0.36029781     0.71400
O886        O  0.44057784  0.45692074  0.01142628    -0.60300
O887        O  0.97883110  0.94967053  0.01997358    -0.52300
C888        C  0.46018669  0.95869906  0.03258179     0.73200
O889        O  0.42784552  0.53514064  0.47981636    -0.71700
O890        O  0.44812627  0.55746563  0.42069945    -0.50400
C891        C  0.43066935  0.55295572  0.45369372     0.74600
O892        O  0.42384708  0.89347846  0.43475778    -0.67000
O893        O  0.47114352  0.91219243  0.46404643    -0.54200
C894        C  0.44009725  0.88823629  0.45429378     0.72900
Zr895      Zr  0.43532499  0.94229688  0.40353551     2.77500
O896        O  0.37364534  0.89962138  0.43000176    -0.97800
O897        O  0.42964029  0.90827206  0.34545066    -0.78600
Zr898      Zr  0.45549686  0.50905005  0.48980413     2.70100
O899        O  0.40271783  0.98564337  0.03702325    -0.79800
O900        O  0.98256817  0.55584440  0.04043072    -0.98900
Zr901      Zr  0.00862798  0.97511282  0.45956518     2.21500
Zr902      Zr  0.47870308  0.53543729  0.38909208     2.11100
O903        O  0.43543013  0.98989854  0.43005968    -2.47600
O904        O  0.45323111  0.96169874  0.46386731    -0.79600
O905        O  0.48205776  0.99194515  0.37440593    -0.71800
O906        O  0.01286580  0.52542027  0.48720557    -2.32800
O907        O  0.49240572  0.95685067  0.39782877    -2.29000
O908        O  0.99892625  0.55844244  0.45194738    -0.73600
H909        H  0.05568976  0.57585531  0.37008251     0.78400
H910        H  0.02211389  0.53416884  0.01177578     0.79500
H911        H  0.41242840  0.98426529  0.43162210     0.81700
H912        H  0.49116122  0.93676640  0.38869570     0.79300
H913        H  0.05735246  0.62204047  0.50032932     0.42400
H914        H  0.99514871  0.57797335  0.02702932     0.41300
H915        H  0.38333164  0.96567085  0.02314912     0.41000
H916        H  0.36547322  0.91344969  0.44016383     0.38900
H917        H  0.40388195  0.88976207  0.34547320     0.42100
H918        H  0.52522994  0.94998601  0.31214704     0.36900
H919        H  0.11176412  0.55579130  0.36262676     0.43000
H920        H  0.11967812  0.61380942  0.39710561     0.39400
H921        H  0.36052140  0.88649174  0.40776447     0.44300
H922        H  0.05921627  0.97887362  0.29778236     0.43000
H923        H  0.12484121  0.63786732  0.43312703     0.43200
H924        H  0.46420196  0.55323043  0.05650721     0.43500
O925        O  0.04475913  0.95967368  0.13260421    -0.75300
O926        O  0.04046427  0.95758715  0.19667691    -0.54200
C927        C  0.05059602  0.95273729  0.16262466     0.78400
O928        O  0.06176752  0.61227491  0.14413159    -0.59900
O929        O  0.51478985  0.58640405  0.10942592    -0.53000
C930        C  0.04507265  0.61439453  0.12167125     0.70400
O931        O  0.09618715  0.56889377  0.21262712    -0.74500
O932        O  0.06649494  0.51669475  0.24131498    -0.55100
C933        C  0.09410731  0.54805553  0.23373315     0.76400
O934        O  0.00724368  0.00271910  0.06659202    -0.59600
O935        O  0.45910593  0.49902305  0.07460831    -0.52800
C936        C  0.47620831  0.48848124  0.05867559     0.73000
Zr937      Zr  0.01413443  0.98006239  0.11569570     2.54700
O938        O  0.06204288  0.49429593  0.06701649    -0.80200
O939        O  0.48221953  0.92330942  0.08183551    -0.93600
Zr940      Zr  0.05926367  0.56853850  0.17392662     2.64700
O941        O  0.10841872  0.58579381  0.12489212    -0.98600
O942        O  0.09811706  0.62499555  0.20547314    -0.80600
O943        O  0.04687284  0.51315497  0.16707821    -0.84000
O944        O  0.02832400  0.53708567  0.12147445    -2.18700
O945        O  0.38569983  0.94045816  0.14340475    -0.67400
O946        O  0.41435351  0.99446623  0.11950965    -0.52000
C947        C  0.38720545  0.96245864  0.12489548     0.71400
O948        O  0.45369498  0.48653707  0.28344980    -0.60300
O949        O  0.99043238  0.97650261  0.28771365    -0.52300
C950        C  0.48278370  0.99554104  0.29714236     0.73200
O951        O  0.43448210  0.54605177  0.22487390    -0.71700
O952        O  0.44531338  0.55466895  0.16106576    -0.50400
C953        C  0.43174278  0.55582857  0.19483160     0.74600
O954        O  0.41699637  0.89422956  0.21278234    -0.67000
O955        O  0.46909790  0.91742950  0.23491198    -0.54200
C956        C  0.43725627  0.89176329  0.22853162     0.72900
Zr957      Zr  0.42244190  0.93978053  0.18212468     2.77500
O958        O  0.37416231  0.92269396  0.23230584    -0.97800
O959        O  0.38674743  0.88559989  0.14556419    -0.78600
Zr960      Zr  0.46844824  0.52900554  0.24058644     2.70100
O961        O  0.43229873  0.03005816  0.29429410    -0.79800
O962        O  0.01213503  0.58803098  0.26864290    -0.98900
Zr963      Zr  0.00892502  0.98051072  0.22075391     2.21500
Zr964      Zr  0.47284731  0.52783966  0.13515309     2.11100
O965        O  0.43624891  0.99605945  0.18970762    -2.47600
O966        O  0.45520364  0.97332147  0.23279144    -0.79600
O967        O  0.46128838  0.97239894  0.12946857    -0.71800
O968        O  0.02284016  0.53725072  0.22874437    -2.32800
O969        O  0.47591996  0.94618404  0.16861225    -2.29000
O970        O  0.00650219  0.56303490  0.18660764    -0.73600
H971        H  0.04334557  0.55227405  0.10025805     0.78400
H972        H  0.03813617  0.55143526  0.24823138     0.79500
H973        H  0.41433278  0.99263398  0.19307504     0.81700
H974        H  0.47150109  0.92412253  0.16482682     0.79300
H975        H  0.08610452  0.62208342  0.23163053     0.42400
H976        H  0.02477732  0.60407513  0.24697209     0.41300
H977        H  0.40791655  0.01072631  0.28837943     0.41000
H978        H  0.37324114  0.90720890  0.24870864     0.38900
H979        H  0.39856629  0.89148922  0.11910395     0.42100
H980        H  0.45707229  0.91231555  0.09033162     0.36900
H981        H  0.08342531  0.50777055  0.08041256     0.43000
H982        H  0.10101494  0.56392615  0.11067887     0.39400
H983        H  0.38296650  0.94415375  0.24807728     0.44300
H984        H  0.98319380  0.90893728  0.09575034     0.43000
H985        H  0.10830698  0.59941755  0.10677589     0.43200
H986        H  0.49718168  0.59105518  0.28727595     0.43500
C987        C  0.16268909  0.85238240  0.31988985     0.30000
C988        C  0.16389281  0.85600373  0.39925347     0.30000
C989        C  0.14881922  0.87057459  0.34454904    -0.06200
C990        C  0.14226772  0.81760556  0.34036382    -0.07000
C991        C  0.19944775  0.87299610  0.33421404    -0.06900
C992        C  0.14783575  0.87086116  0.38440269    -0.06200
C993        C  0.14229637  0.81952962  0.38008546    -0.07000
C994        C  0.19960035  0.87436357  0.37403389    -0.06900
C995        C  0.13027830  0.88379273  0.40019576    -0.32300
N996        N  0.12345774  0.89394703  0.37173024     0.14200
C997        C  0.13560161  0.88711268  0.33783754    -0.32300
H998        H  0.13401709  0.89305580  0.31039271     0.16200
C999        C  0.12190605  0.78598964  0.39231128    -0.31300
N1000       N  0.11093452  0.76410073  0.36163675     0.12900
C1001       C  0.12328662  0.78281207  0.32962767    -0.31300
C1002       C  0.23401330  0.89340763  0.38100646    -0.31600
N1003       N  0.25487751  0.90380375  0.34723152     0.13400
H1004       H  0.24328140  0.89905178  0.40859415     0.16100
C1005       C  0.23446544  0.89216154  0.31860086    -0.31600
H1006       H  0.24474213  0.89765127  0.28886686     0.16100
H1007       H  0.11899825  0.77195720  0.30091888     0.16100
H1008       H  0.12253601  0.88546658  0.43013596     0.16100
H1009       H  0.11578783  0.77765783  0.42130030     0.16100
C1010       C  0.15933174  0.84940373  0.07003256     0.30000
C1011       C  0.16011120  0.84867738  0.14870448     0.30000
C1012       C  0.14230547  0.86395438  0.09715729    -0.06200
C1013       C  0.13892916  0.81325754  0.08784529    -0.07000
C1014       C  0.19565016  0.87051987  0.08474194    -0.06900
C1015       C  0.14362386  0.86425928  0.13653493    -0.06200
C1016       C  0.14000258  0.81323336  0.12705625    -0.07000
C1017       C  0.19593244  0.87072909  0.12409798    -0.06900
C1018       C  0.13187523  0.88216970  0.15468721    -0.32300
N1019       N  0.12130618  0.89094777  0.12871168     0.14200
C1020       C  0.12650484  0.87890104  0.09379454    -0.32300
H1021       H  0.11886556  0.88042030  0.06785089     0.16200
C1022       C  0.12181880  0.77916912  0.13674878    -0.31300
N1023       N  0.10952351  0.75845463  0.10513481     0.12900
C1024       C  0.11854416  0.77866849  0.07557182    -0.31300
C1025       C  0.23040317  0.89483021  0.13114235    -0.31600
N1026       N  0.25109309  0.90725440  0.09753418     0.13400
H1027       H  0.24016171  0.90236477  0.15864855     0.16100
C1028       C  0.23037039  0.89277770  0.06888678    -0.31600
H1029       H  0.23989788  0.89777690  0.03890339     0.16100
H1030       H  0.11190505  0.76887460  0.04696489     0.16100
H1031       H  0.13203651  0.88933950  0.18464961     0.16100
H1032       H  0.11898032  0.77018039  0.16444703     0.16100
C1033       C  0.16008958  0.84675344  0.19283256    -0.06200
C1034       C  0.13198892  0.84123585  0.21898369    -0.17300
C1035       C  0.13040388  0.84000241  0.25899088     0.11000
C1036       C  0.15973441  0.84831112  0.27552486    -0.06100
C1037       C  0.18480555  0.84823711  0.24921275    -0.17300
C1038       C  0.18422724  0.84558458  0.20908015     0.11100
S1039       S  0.08790841  0.82345511  0.28522985    -0.32300
S1040       S  0.21233803  0.83629717  0.18186761    -0.32300
H1041       H  0.19194946  0.81816660  0.15164726     0.29100
H1042       H  0.09012725  0.80972091  0.31566571     0.29100
H1043       H  0.10947336  0.83544329  0.20802082     0.19700
H1044       H  0.20370229  0.84747198  0.25993337     0.19700
C1045       C  0.16591096  0.85719037  0.44351875    -0.06200
C1046       C  0.16868858  0.83359566  0.45802084    -0.17300
C1047       C  0.16868234  0.83128166  0.49735140     0.11000
C1048       C  0.16230504  0.85152039  0.02527450    -0.06100
C1049       C  0.16618954  0.87867896  0.51030398    -0.17300
C1050       C  0.16975930  0.88308336  0.47056832     0.11100
S1051       S  0.18077013  0.80522406  0.50769510    -0.32300
S1052       S  0.18644859  0.92572465  0.45737024    -0.32300
H1053       H  0.20456147  0.92613585  0.42214021     0.29100
H1054       H  0.19645037  0.82412809  0.04112697     0.29100
H1055       H  0.17294527  0.81775094  0.43808920     0.19700
H1056       H  0.16978738  0.89983222  0.02859245     0.19700
C1057       C  0.06164352  0.65051903  0.10991305    -0.06200
C1058       C  0.09774855  0.67661628  0.11402155    -0.17300
C1059       C  0.11434153  0.71192112  0.11016494     0.11000
C1060       C  0.09478377  0.72226913  0.10244085    -0.06100
C1061       C  0.05979193  0.69661736  0.09476703    -0.17300
C1062       C  0.04295235  0.66094459  0.09838347     0.11100
S1063       S  0.16065739  0.74281842  0.11588380    -0.32300
S1064       S  0.49581220  0.62945294  0.09082830    -0.35700
H1065       H  0.48551959  0.61245321  0.12501715     0.29100
H1066       H  0.16839141  0.76770737  0.09132673     0.29100
H1067       H  0.11332690  0.66964569  0.12114513     0.19700
H1068       H  0.04497591  0.70457359  0.08793094     0.19700
C1069       C  0.28828296  0.92550625  0.09391232    -0.06200
C1070       C  0.30067930  0.90634882  0.08224930    -0.17300
C1071       C  0.33372162  0.91850766  0.09020569     0.11000
C1072       C  0.35488117  0.95063176  0.11012586    -0.06100
C1073       C  0.34384100  0.97132811  0.11831794    -0.17300
C1074       C  0.31063150  0.95892480  0.11068708     0.11100
S1075       S  0.34684510  0.89146572  0.07513777    -0.32300
S1076       S  0.29695560  0.98557717  0.12541384    -0.32300
H1077       H  0.27014044  0.96902196  0.10145186     0.29100
H1078       H  0.38329884  0.91903166  0.07005562     0.29100
H1079       H  0.28333258  0.88057429  0.06949177     0.19700
H1080       H  0.36032307  0.99648193  0.13263662     0.19700
C1081       C  0.07038106  0.93835208  0.15646637    -0.06200
C1082       C  0.09198081  0.94515587  0.12162661    -0.17300
C1083       C  0.11051082  0.93171178  0.11266759     0.11000
C1084       C  0.10583352  0.90862776  0.13789208    -0.06100
C1085       C  0.08536318  0.90288277  0.17333219    -0.17300
C1086       C  0.06835194  0.91787597  0.18325862     0.11100
S1087       S  0.14169874  0.94761386  0.07017573    -0.32300
S1088       S  0.04503392  0.90961686  0.23065290    -0.32300
H1089       H  0.51284580  0.89853267  0.22049745     0.29100
H1090       H  0.16702647  0.94888085  0.08594677     0.29100
H1091       H  0.09546698  0.96214956  0.10139395     0.19700
H1092       H  0.08191313  0.88589090  0.19347304     0.19700
C1093       C  0.06439359  0.66091223  0.38675121    -0.06200
C1094       C  0.04379138  0.67224430  0.39189862    -0.17300
C1095       C  0.05789707  0.70545318  0.38088549     0.11000
C1096       C  0.09309756  0.72766829  0.36397873    -0.06100
C1097       C  0.11322838  0.71592182  0.35718356    -0.17300
C1098       C  0.09928634  0.68275664  0.36847485     0.11100
S1099       S  0.03055565  0.71899204  0.39059812    -0.32300
S1100       S  0.12601715  0.66849210  0.35900293    -0.32300
H1101       H  0.15581308  0.69836420  0.33989795     0.29100
H1102       H  0.04942638  0.74537124  0.36349314     0.29100
H1103       H  0.01680432  0.65540278  0.40533954     0.19700
H1104       H  0.14045882  0.73360067  0.34478126     0.19700
C1105       C  0.29237399  0.92284080  0.34322655    -0.06200
C1106       C  0.31361748  0.95720527  0.35738565    -0.17300
C1107       C  0.34965565  0.97520289  0.35965437     0.11000
C1108       C  0.36470123  0.95806439  0.34791584    -0.06100
C1109       C  0.34367616  0.92446098  0.33102535    -0.17300
C1110       C  0.30778197  0.90664139  0.32892459     0.11100
S1111       S  0.37484027  0.01875983  0.38030315    -0.32300
S1112       S  0.28249798  0.86239110  0.31039991    -0.32300
H1113       H  0.25109833  0.84975177  0.33451686     0.29100
H1114       H  0.34763408  0.02176993  0.38711992     0.29100
H1115       H  0.30134327  0.96929555  0.36803192     0.19700
H1116       H  0.35470974  0.91095340  0.32174132     0.19700
C1117       C  0.07737489  0.94503140  0.38945214    -0.06200
C1118       C  0.05965774  0.91223721  0.40518695    -0.17300
C1119       C  0.07375133  0.89448308  0.39871970     0.11000
C1120       C  0.10675288  0.91000139  0.37665752    -0.06100
C1121       C  0.12438692  0.94249022  0.36045165    -0.17300
C1122       C  0.11034156  0.96041485  0.36696625     0.11100
S1123       S  0.04769911  0.85154473  0.41801845    -0.32300
S1124       S  0.13703497  0.50394653  0.34817399    -0.32300
H1125       H  0.12908807  0.51792581  0.38111450     0.29100
H1126       H  0.05925773  0.83799865  0.38829213     0.29100
H1127       H  0.03411396  0.89987048  0.42197496     0.19700
H1128       H  0.14989421  0.95444729  0.34375295     0.19700
C1129       C  0.37793816  0.60025818  0.21493236    -0.06200
C1130       C  0.36040603  0.56604004  0.22591900    -0.17300
C1131       C  0.37676406  0.55030275  0.21819244     0.11000
C1132       C  0.41174985  0.56947907  0.19983073    -0.06100
C1133       C  0.42913016  0.60366041  0.18883055    -0.17300
C1134       C  0.41268521  0.61922949  0.19621924     0.11100
S1135       S  0.35153773  0.50564937  0.23188783    -0.32300
S1136       S  0.43803718  0.66399771  0.18299007    -0.32300
H1137       H  0.42352878  0.67346117  0.21425641     0.29100
H1138       H  0.36959763  0.99875695  0.19900497     0.29100
H1139       H  0.33364435  0.55143205  0.24008313     0.19700
H1140       H  0.45633913  0.61905348  0.17622901     0.19700
C1141       C  0.39607378  0.78694278  0.24800471    -0.06200
C1142       C  0.42357311  0.80669749  0.21895225    -0.17300
C1143       C  0.43647549  0.84035015  0.21185051     0.11000
C1144       C  0.42423671  0.85642775  0.23633221    -0.06100
C1145       C  0.39794925  0.83757105  0.26665791    -0.17300
C1146       C  0.38301594  0.80269547  0.27207297     0.11100
S1147       S  0.46483458  0.85959913  0.16810094    -0.32300
S1148       S  0.34512314  0.77884037  0.30725596    -0.32300
H1149       H  0.32509698  0.74954072  0.28318329     0.29100
H1150       H  0.44251353  0.86450706  0.15531524     0.29100
H1151       H  0.43304106  0.79465428  0.19962158     0.19700
H1152       H  0.38765582  0.84940169  0.28482504     0.19700
C1153       C  0.12674930  0.56067560  0.24817487    -0.06200
C1154       C  0.13860073  0.54071074  0.23977551    -0.17300
C1155       C  0.17306981  0.55493355  0.24458415     0.11000
C1156       C  0.19579520  0.58946393  0.25848642    -0.06100
C1157       C  0.18296359  0.60819778  0.27030310    -0.17300
C1158       C  0.14857311  0.59416951  0.26510955     0.11100
S1159       S  0.18764986  0.52904552  0.22983749    -0.32300
S1160       S  0.13293712  0.61926727  0.27928061    -0.32300
H1161       H  0.16373190  0.64837435  0.29411363     0.29100
H1162       H  0.21570574  0.54713628  0.25227667     0.29100
H1163       H  0.12180504  0.51485666  0.22693736     0.19700
H1164       H  0.20081238  0.63467092  0.28111408     0.19700
C1165       C  0.41384801  0.57048607  0.46172714    -0.06200
C1166       C  0.42701903  0.59880321  0.43897175    -0.17300
C1167       C  0.41349606  0.61721359  0.44484772     0.11000
C1168       C  0.38561907  0.60726162  0.47393982    -0.06100
C1169       C  0.37271193  0.57957220  0.49729158    -0.17300
C1170       C  0.38601517  0.56082831  0.49129923     0.11100
S1171       S  0.43391626  0.65406913  0.41518676    -0.32300
S1172       S  0.36476665  0.52389867  0.52108943    -0.32300
H1173       H  0.36061843  0.99885065  0.48286605     0.29100
H1174       H  0.42916965  0.67392175  0.44340160     0.29100
H1175       H  0.44861710  0.60726087  0.41658230     0.19700
H1176       H  0.35104241  0.57160608  0.51944346     0.19700
C1177       C  0.42185764  0.85220509  0.46664296    -0.06200
C1178       C  0.44088730  0.83914509  0.46285888    -0.17300
C1179       C  0.42439265  0.80467291  0.47210931     0.11000
C1180       C  0.38809034  0.78261612  0.48561989    -0.06100
C1181       C  0.36967768  0.79621093  0.99299605    -0.17300
C1182       C  0.38540474  0.83060084  0.98451147     0.11100
S1183       S  0.45062407  0.78987037  0.46456524    -0.32300
S1184       S  0.35844659  0.84452717  0.99515046    -0.32300
H1185       H  0.38610640  0.87906264  0.00512281     0.29100
H1186       H  0.42907053  0.76189189  0.48962114     0.29100
H1187       H  0.46859405  0.85562396  0.45168824     0.19700
H1188       H  0.34195829  0.77888577  0.00395831     0.19700
C1189       C  0.12179413  0.55027074  0.50521805    -0.06200
C1190       C  0.14412970  0.58546324  0.02106057    -0.17300
C1191       C  0.17935359  0.60143710  0.02455649     0.11000
C1192       C  0.19224698  0.58059531  0.51358399    -0.06100
C1193       C  0.16950836  0.54620004  0.49995429    -0.17300
C1194       C  0.13425225  0.53051965  0.49617692     0.11100
S1195       S  0.20646144  0.64632099  0.04087728    -0.32300
S1196       S  0.10706806  0.48662154  0.47666846    -0.32300
H1197       H  0.13002813  0.47889751  0.47885022     0.29100
H1198       H  0.23654945  0.65704855  0.01519049     0.29100
H1199       H  0.13466554  0.60058812  0.02813365     0.19700
H1200       H  0.18016030  0.53241743  0.49031518     0.19700
C1201       C  0.32527625  0.65894335  0.32631173    -0.06200
C1202       C  0.29958236  0.65834938  0.35217752    -0.17300
C1203       C  0.29731645  0.65740007  0.39233047     0.11000
C1204       C  0.32034856  0.65491741  0.40911859    -0.06100
C1205       C  0.34922086  0.66110520  0.38366001    -0.17300
C1206       C  0.35274504  0.66445621  0.34372819     0.11100
S1207       S  0.26609597  0.66291371  0.41894425    -0.32300
S1208       S  0.39542948  0.68034565  0.31878959    -0.32300
H1209       H  0.39572219  0.69771359  0.29023003     0.29100
H1210       H  0.28395195  0.68019942  0.45097697     0.29100
H1211       H  0.28218593  0.66118474  0.34127882     0.19700
H1212       H  0.37128976  0.66650282  0.39513279     0.19700
C1213       C  0.32152525  0.65804474  0.07695836    -0.06200
C1214       C  0.32316865  0.68391193  0.10123298    -0.17300
C1215       C  0.32075281  0.68369457  0.14153837     0.11000
C1216       C  0.32157056  0.65967749  0.15936911    -0.06100
C1217       C  0.31397679  0.63084865  0.13588078    -0.17300
C1218       C  0.31212801  0.62889255  0.09608328     0.11100
S1219       S  0.31007108  0.71062935  0.16719476    -0.32300
S1220       S  0.29338551  0.58720294  0.07165127    -0.32300
H1221       H  0.28255465  0.56731659  0.10388252     0.29100
H1222       H  0.29229432  0.69081544  0.20012498     0.29100
H1223       H  0.32246405  0.70255430  0.08928325     0.19700
H1224       H  0.30725146  0.60848708  0.14917322     0.19700
C1225       C  0.32267878  0.65808698  0.53240738     0.30000
C1226       C  0.32083446  0.65489018  0.95341525     0.30000
C1227       C  0.34245663  0.64599106  0.50688530    -0.06200
C1228       C  0.28586797  0.63351519  0.51848401    -0.07000
C1229       C  0.33915526  0.69267320  0.51250419    -0.06900
C1230       C  0.33991875  0.64275244  0.96741986    -0.06200
C1231       C  0.28506873  0.63248181  0.97872791    -0.07000
C1232       C  0.33924575  0.69097971  0.97291810    -0.06900
C1233       C  0.35451607  0.62681166  0.95138580    -0.32300
N1234       N  0.36737827  0.62228711  0.97892498     0.14200
C1235       C  0.36134536  0.63501154  0.51279395    -0.32300
H1236       H  0.36813456  0.63426155  0.53985156     0.16200
C1237       C  0.24992397  0.60975062  0.97327640    -0.31300
N1238       N  0.22956337  0.59820579  0.50835566     0.12900
C1239       C  0.25153377  0.61361254  0.53589423    -0.31300
C1240       C  0.35768200  0.72391831  0.95965654    -0.31600
N1241       N  0.36880827  0.74581028  0.48903348     0.13400
H1242       H  0.36171732  0.73089738  0.93044946     0.16100
C1243       C  0.35924922  0.72820334  0.52139230    -0.31600
H1244       H  0.36768210  0.74075691  0.54874072     0.16100
H1245       H  0.24316031  0.61180375  0.56622774     0.16100
H1246       H  0.35495002  0.61806437  0.92204737     0.16100
H1247       H  0.23925439  0.60157588  0.94626187     0.16100
C1248       C  0.32508843  0.66021583  0.70327115     0.30000
C1249       C  0.32579685  0.65887494  0.78181442     0.30000
C1250       C  0.34009719  0.64305698  0.71526411    -0.06200
C1251       C  0.34737409  0.69569192  0.72469250    -0.07000
C1252       C  0.28936144  0.64056226  0.72826903    -0.06900
C1253       C  0.33953723  0.64141364  0.75472797    -0.06200
C1254       C  0.34699782  0.69508560  0.76409833    -0.07000
C1255       C  0.28932782  0.63966289  0.76760098    -0.06900
C1256       C  0.35159475  0.62297281  0.75841504    -0.32300
N1257       N  0.36188407  0.61603327  0.72316282     0.14200
C1258       C  0.35486864  0.62792535  0.69675300    -0.32300
H1259       H  0.36088417  0.62618564  0.66631729     0.16200
C1260       C  0.36668980  0.72936239  0.77735177    -0.31300
N1261       N  0.37918075  0.75046650  0.74731572     0.12900
C1262       C  0.36885710  0.73017179  0.71518119    -0.31300
C1263       C  0.25424844  0.61870794  0.78299496    -0.31600
N1264       N  0.23392607  0.60781150  0.75457562     0.13400
H1265       H  0.24384765  0.61127695  0.81236493     0.16100
C1266       C  0.25491032  0.62079485  0.72119180    -0.31600
H1267       H  0.24567769  0.61649448  0.69387107     0.16100
H1268       H  0.37585971  0.74005197  0.68683691     0.16100
H1269       H  0.35350522  0.61565022  0.78470956     0.16100
H1270       H  0.37116266  0.73816674  0.80665460     0.16100
O1271       O  0.06252390  0.97872249  0.87086763    -0.75300
O1272       O  0.04297763  0.95708038  0.93034863    -0.54200
C1273       C  0.06040280  0.96178125  0.89743751     0.78400
O1274       O  0.06460103  0.62084642  0.91705553    -0.59900
O1275       O  0.01795823  0.60018936  0.88510255    -0.53000
C1276       C  0.04807287  0.62490821  0.89643802     0.70400
O1277       O  0.09109645  0.56492934  0.97788315    -0.74500
O1278       O  0.06214679  0.50822292  0.99187150    -0.55100
C1279       C  0.08929220  0.54065095  0.99144799     0.76400
O1280       O  0.03795159  0.04042428  0.81596131    -0.59600
O1281       O  0.49782735  0.54692782  0.82322837    -0.52800
C1282       C  0.50741495  0.52879100  0.80923346     0.73000
Zr1283     Zr  0.03707167  0.00683708  0.86080315     2.54700
O1284       O  0.10014125  0.54961101  0.84436696    -0.80200
O1285       O  0.53814328  0.97339573  0.80493755    -0.93600
Zr1286     Zr  0.05546551  0.57275858  0.94715775     2.64700
O1287       O  0.11822698  0.61452788  0.92571886    -0.98600
O1288       O  0.06414590  0.60911317  0.00412043    -0.80600
O1289       O  0.05418778  0.52441589  0.92288867    -0.84000
O1290       O  0.03837677  0.55485316  0.88548255    -2.18700
O1291       O  0.39910605  0.94645577  0.86977484    -0.67400
O1292       O  0.42440183  0.00339884  0.86267078    -0.52000
C1293       C  0.39897414  0.97050046  0.85957216     0.71400
O1294       O  0.44086146  0.45590347  0.51110777    -0.60300
O1295       O  0.97744788  0.94776214  0.51901394    -0.52300
C1296       C  0.46124857  0.95965111  0.53269093     0.73200
O1297       O  0.42830053  0.53619924  0.97977651    -0.71700
O1298       O  0.44845713  0.55817822  0.92044886    -0.50400
C1299       C  0.43075223  0.55347828  0.95331933     0.74600
O1300       O  0.42236497  0.89367071  0.93705972    -0.67000
O1301       O  0.47023510  0.91250922  0.96526765    -0.54200
C1302       C  0.43892199  0.88858955  0.95623067     0.72900
Zr1303     Zr  0.43473116  0.94223977  0.90449001     2.77500
O1304       O  0.37353630  0.90187704  0.93368360    -0.97800
O1305       O  0.42656349  0.90476467  0.84892576    -0.78600
Zr1306     Zr  0.45617947  0.51065841  0.99054349     2.70100
O1307       O  0.40294498  0.98561868  0.53630442    -0.79800
O1308       O  0.98060939  0.55312183  0.54298918    -0.98900
Zr1309     Zr  0.00976279  0.97628220  0.96017621     2.21500
Zr1310     Zr  0.47979352  0.53678746  0.88950768     2.11100
O1311       O  0.43518136  0.99012900  0.93043165    -2.47600
O1312       O  0.45311176  0.96211633  0.96437408    -0.79600
O1313       O  0.48166605  0.99162152  0.87489673    -0.71800
O1314       O  0.01259995  0.52591209  0.98769158    -2.32800
O1315       O  0.49183860  0.95659747  0.89872121    -2.29000
O1316       O  0.99853536  0.55835967  0.95125152    -0.73600
H1317       H  0.05534720  0.57490999  0.86958262     0.78400
H1318       H  0.02221479  0.53331101  0.51126670     0.79500
H1319       H  0.41225998  0.98461155  0.93170231     0.81700
H1320       H  0.49054005  0.93643943  0.88981418     0.79300
H1321       H  0.06084368  0.62566943  0.99700052     0.42400
H1322       H  0.99408056  0.57586394  0.53069986     0.41300
H1323       H  0.38384220  0.96460011  0.52310635     0.41000
H1324       H  0.36665342  0.91673185  0.94413510     0.38900
H1325       H  0.43122113  0.91828362  0.82710994     0.42100
H1326       H  0.52473761  0.94921713  0.81338805     0.36900
H1327       H  0.11069881  0.55699823  0.86862293     0.43000
H1328       H  0.11970309  0.61362746  0.89760178     0.39400
H1329       H  0.35935342  0.88865305  0.91220334     0.44300
H1330       H  0.06029301  0.97983480  0.79865007     0.43000
H1331       H  0.12463748  0.63771997  0.93350930     0.43200
H1332       H  0.46467655  0.55358564  0.55401430     0.43500
O1333       O  0.04520406  0.95929902  0.63281260    -0.75300
O1334       O  0.04033016  0.95664505  0.69684776    -0.54200
C1335       C  0.05065902  0.95193129  0.66283452     0.78400
O1336       O  0.06357675  0.61221460  0.64252898    -0.59900
O1337       O  0.51540941  0.58534485  0.60883826    -0.53000
C1338       C  0.04670024  0.61420212  0.62026423     0.70400
O1339       O  0.09740919  0.56812725  0.71099921    -0.74500
O1340       O  0.06706829  0.51695434  0.74206565    -0.55100
C1341       C  0.09504739  0.54784816  0.73331925     0.76400
O1342       O  0.00723275  0.00102612  0.56536477    -0.59600
O1343       O  0.46066674  0.49878653  0.57357125    -0.52800
C1344       C  0.47750913  0.48794373  0.55766401     0.73000
Zr1345     Zr  0.01460108  0.97969922  0.61559411     2.54700
O1346       O  0.06347118  0.49544381  0.56769957    -0.80200
O1347       O  0.48353728  0.92469464  0.58204765    -0.93600
Zr1348     Zr  0.06048118  0.56867352  0.67326201     2.64700
O1349       O  0.11046057  0.58719739  0.62495479    -0.98600
O1350       O  0.09833942  0.62457372  0.70619068    -0.80600
O1351       O  0.04771095  0.51321395  0.66680710    -0.84000
O1352       O  0.02907660  0.53705016  0.62101294    -2.18700
O1353       O  0.38748419  0.94021327  0.64230781    -0.67400
O1354       O  0.41527995  0.99415336  0.61880016    -0.52000
C1355       C  0.38854714  0.96193561  0.62379893     0.71400
O1356       O  0.45509854  0.48654595  0.78281568    -0.60300
O1357       O  0.99130805  0.97697071  0.78773437    -0.52300
C1358       C  0.48312889  0.99570848  0.79746602     0.73200
O1359       O  0.43566707  0.54576155  0.72391927    -0.71700
O1360       O  0.44574885  0.55360962  0.66001915    -0.50400
C1361       C  0.43250263  0.55515979  0.69387169     0.74600
O1362       O  0.41970096  0.89532986  0.71288953    -0.67000
O1363       O  0.47197525  0.91888055  0.73483413    -0.54200
C1364       C  0.44017282  0.89304769  0.72850404     0.72900
Zr1365     Zr  0.42403277  0.94029083  0.68221973     2.77500
O1366       O  0.37580421  0.92402224  0.73204313    -0.97800
O1367       O  0.38742493  0.88476064  0.64818432    -0.78600
Zr1368     Zr  0.46956572  0.52867025  0.73977692     2.70100
O1369       O  0.43547773  0.03347001  0.79570529    -0.79800
O1370       O  0.01540765  0.58950670  0.76698680    -0.98900
Zr1371     Zr  0.00937959  0.98028746  0.72067133     2.21500
Zr1372     Zr  0.47354613  0.52681015  0.63454201     2.11100
O1373       O  0.43692423  0.99611786  0.68992851    -2.47600
O1374       O  0.45668322  0.97399027  0.73284988    -0.79600
O1375       O  0.46237608  0.97305503  0.62942040    -0.71800
O1376       O  0.02428733  0.53797203  0.72848721    -2.32800
O1377       O  0.47792206  0.94756398  0.66857024    -2.29000
O1378       O  0.00787141  0.56348900  0.68597449    -0.73600
H1379       H  0.04378240  0.55173531  0.59928464     0.78400
H1380       H  0.03972909  0.55221308  0.74789541     0.79500
H1381       H  0.41468826  0.99202781  0.69300479     0.81700
H1382       H  0.47380057  0.92563756  0.66468933     0.79300
H1383       H  0.08260359  0.63034910  0.71765883     0.42400
H1384       H  0.02313818  0.60575985  0.74664571     0.41300
H1385       H  0.41067054  0.01443046  0.79120434     0.41000
H1386       H  0.37509474  0.90902783  0.74894772     0.38900
H1387       H  0.39931781  0.88935683  0.62177254     0.42100
H1388       H  0.45845145  0.91341424  0.59121230     0.36900
H1389       H  0.08476179  0.50988671  0.58132438     0.43000
H1390       H  0.10183014  0.56682535  0.60731661     0.39400
H1391       H  0.38460374  0.94579315  0.74724153     0.44300
H1392       H  0.98653052  0.90954632  0.59382977     0.43000
H1393       H  0.11326545  0.60463974  0.61000554     0.43200
H1394       H  0.49980963  0.59206042  0.78426320     0.43500
C1395       C  0.16335120  0.85227195  0.81945418     0.30000
C1396       C  0.16476724  0.85606759  0.89874847     0.30000
C1397       C  0.15003886  0.87103965  0.84400994    -0.06200
C1398       C  0.14252646  0.81756684  0.84005594    -0.07000
C1399       C  0.20006412  0.87226208  0.83355659    -0.06900
C1400       C  0.14931174  0.87154408  0.88381803    -0.06200
C1401       C  0.14256639  0.81948223  0.87977111    -0.07000
C1402       C  0.20037162  0.87367693  0.87333666    -0.06900
C1403       C  0.13174114  0.88447830  0.89967619    -0.32300
N1404       N  0.12428319  0.89414909  0.87131856     0.14200
C1405       C  0.13630797  0.88715928  0.83737388    -0.32300
H1406       H  0.13416534  0.89255484  0.80991811     0.16200
C1407       C  0.12239772  0.78587202  0.89182424    -0.31300
N1408       N  0.11162065  0.76409393  0.86101151     0.12900
C1409       C  0.12383489  0.78288123  0.82913837    -0.31300
C1410       C  0.23478525  0.89193940  0.87994391    -0.31600
N1411       N  0.25543995  0.90187117  0.84598877     0.13400
H1412       H  0.24423335  0.89771639  0.90744277     0.16100
C1413       C  0.23493544  0.89075229  0.81762626    -0.31600
H1414       H  0.24511964  0.89650002  0.78790675     0.16100
H1415       H  0.11981664  0.77215898  0.80036169     0.16100
H1416       H  0.12430533  0.88632549  0.92966789     0.16100
H1417       H  0.11649152  0.77744991  0.92072590     0.16100
C1418       C  0.16003910  0.84887887  0.56997606     0.30000
C1419       C  0.16100475  0.84822654  0.64852806     0.30000
C1420       C  0.14224699  0.86257774  0.59718518    -0.06200
C1421       C  0.14038084  0.81283946  0.58759818    -0.07000
C1422       C  0.19646921  0.87058318  0.58466512    -0.06900
C1423       C  0.14371312  0.86304296  0.63649122    -0.06200
C1424       C  0.14156912  0.81285017  0.62677744    -0.07000
C1425       C  0.19683131  0.87086037  0.62401551    -0.06900
C1426       C  0.13111964  0.88023450  0.65466570    -0.32300
N1427       N  0.11984592  0.88830089  0.62873609     0.14200
C1428       C  0.12535519  0.87640198  0.59386567    -0.32300
H1429       H  0.11729198  0.87731911  0.56791863     0.16200
C1430       C  0.12370147  0.77884037  0.63643852    -0.31300
N1431       N  0.11138582  0.75816833  0.60482929     0.12900
C1432       C  0.12015260  0.77829216  0.57531754    -0.31300
C1433       C  0.23139958  0.89450422  0.63092439    -0.31600
N1434       N  0.25203536  0.90657129  0.59723293     0.13400
H1435       H  0.24126725  0.90178882  0.65834733     0.16100
C1436       C  0.23121172  0.89234472  0.56868017    -0.31600
H1437       H  0.24067384  0.89694882  0.53864539     0.16100
H1438       H  0.11324947  0.76842069  0.54679783     0.16100
H1439       H  0.13139780  0.88759579  0.68456919     0.16100
H1440       H  0.12091328  0.76985403  0.66411618     0.16100
C1441       C  0.16087649  0.84619527  0.69256937    -0.06200
C1442       C  0.13259975  0.84044226  0.71857800    -0.17300
C1443       C  0.13101137  0.83943843  0.75857912     0.11000
C1444       C  0.16037070  0.84793232  0.77515417    -0.06100
C1445       C  0.18535704  0.84758898  0.74899500    -0.17300
C1446       C  0.18499680  0.84506001  0.70886886     0.11100
S1447       S  0.08854104  0.82306535  0.78475508    -0.32300
S1448       S  0.21342875  0.83608680  0.68179752    -0.32300
H1449       H  0.19363111  0.81842232  0.65108090     0.29100
H1450       H  0.09091133  0.81014436  0.81584793     0.29100
H1451       H  0.10999429  0.83437973  0.70754706     0.19700
H1452       H  0.20394995  0.84643917  0.75981049     0.19700
C1453       C  0.16666142  0.85744362  0.94310736    -0.06200
C1454       C  0.16878691  0.83361636  0.95817898    -0.17300
C1455       C  0.16833702  0.83142387  0.99769114     0.11000
C1456       C  0.16267682  0.85113139  0.52534465    -0.06100
C1457       C  0.16640810  0.87921683  0.00971131    -0.17300
C1458       C  0.17068129  0.88360226  0.96982445     0.11100
S1459       S  0.17988313  0.80510468  0.00880625    -0.32300
S1460       S  0.18874946  0.92655770  0.95605123    -0.32300
H1461       H  0.20693668  0.92632809  0.92119284     0.29100
H1462       H  0.19770024  0.82444451  0.53977848     0.29100
H1463       H  0.17294341  0.81753566  0.93858449     0.19700
H1464       H  0.16945552  0.89910219  0.52947301     0.19700
C1465       C  0.06321161  0.65020712  0.60850061    -0.06200
C1466       C  0.09970426  0.67600266  0.61074476    -0.17300
C1467       C  0.11629983  0.71139636  0.60756331     0.11000
C1468       C  0.09636168  0.72196185  0.60206112    -0.06100
C1469       C  0.06079745  0.69656874  0.59642837    -0.17300
C1470       C  0.04392677  0.66090941  0.59971981     0.11100
S1471       S  0.16294513  0.74207106  0.61178930    -0.32300
S1472       S  0.49758504  0.62870585  0.58802102    -0.35700
H1473       H  0.48590612  0.61089978  0.62190335     0.29100
H1474       H  0.17001913  0.76784070  0.58927222     0.29100
H1475       H  0.11548520  0.66872046  0.61622893     0.19700
H1476       H  0.04565503  0.70475566  0.59152296     0.19700
C1477       C  0.28912568  0.92419720  0.59345718    -0.06200
C1478       C  0.30080726  0.90424027  0.58344737    -0.17300
C1479       C  0.33407197  0.91659402  0.59089748     0.11000
C1480       C  0.35607400  0.94963177  0.60890243    -0.06100
C1481       C  0.34557107  0.97083685  0.61555314    -0.17300
C1482       C  0.31223248  0.95831903  0.60830065     0.11100
S1483       S  0.34642153  0.88870613  0.57767023    -0.32300
S1484       S  0.29943287  0.98586125  0.62131020    -0.32300
H1485       H  0.27167172  0.96820560  0.59850789     0.29100
H1486       H  0.38285399  0.91595263  0.57059043     0.29100
H1487       H  0.28285250  0.87791250  0.57222870     0.19700
H1488       H  0.36254250  0.99653413  0.62865314     0.19700
C1489       C  0.07000331  0.93698065  0.65663073    -0.06200
C1490       C  0.09004837  0.94204907  0.62099282    -0.17300
C1491       C  0.10828549  0.92830149  0.61198969     0.11000
C1492       C  0.10431291  0.90597980  0.63775015    -0.06100
C1493       C  0.08519911  0.90172099  0.67383671    -0.17300
C1494       C  0.06920876  0.91775093  0.68406414     0.11100
S1495       S  0.13878512  0.94349142  0.56896209    -0.32300
S1496       S  0.05027565  0.91372984  0.73311371    -0.32300
H1497       H  0.51623093  0.90105074  0.72189330     0.29100
H1498       H  0.16485849  0.94601330  0.58474798     0.29100
H1499       H  0.09289159  0.95824976  0.60018853     0.19700
H1500       H  0.08258416  0.88566406  0.69457976     0.19700
C1501       C  0.06468901  0.66040063  0.88444372    -0.06200
C1502       C  0.04379507  0.67131455  0.88765458    -0.17300
C1503       C  0.05823653  0.70473110  0.87704850     0.11000
C1504       C  0.09414557  0.72770628  0.86288655    -0.06100
C1505       C  0.11469704  0.71646559  0.85788806    -0.17300
C1506       C  0.10034846  0.68295743  0.86839977     0.11100
S1507       S  0.03034710  0.71758214  0.88374726    -0.32300
S1508       S  0.12755539  0.66919583  0.86050568    -0.32300
H1509       H  0.15824872  0.69998260  0.84375441     0.29100
H1510       H  0.05000589  0.74364920  0.85624871     0.29100
H1511       H  0.01625738  0.65397312  0.89927144     0.19700
H1512       H  0.14240059  0.73469095  0.84734579     0.19700
C1513       C  0.29306209  0.92174198  0.84167842    -0.06200
C1514       C  0.31342939  0.95563305  0.85721683    -0.17300
C1515       C  0.34947758  0.97419716  0.85973522     0.11000
C1516       C  0.36552520  0.95824239  0.84653725    -0.06100
C1517       C  0.34552225  0.92535125  0.82798825    -0.17300
C1518       C  0.30952975  0.90686274  0.82572450     0.11100
S1519       S  0.37317626  0.01648047  0.88336753    -0.32300
S1520       S  0.28557997  0.86334744  0.80518211    -0.32300
H1521       H  0.25371294  0.84926988  0.82893822     0.29100
H1522       H  0.34576181  0.01918812  0.88949307     0.29100
H1523       H  0.30036538  0.96671645  0.86910478     0.19700
H1524       H  0.35735962  0.91272375  0.81785414     0.19700
C1525       C  0.07781784  0.94522130  0.88975384    -0.06200
C1526       C  0.06140167  0.91352033  0.90748533    -0.17300
C1527       C  0.07546003  0.89567687  0.90084059     0.11000
C1528       C  0.10719464  0.90994830  0.87641142    -0.06100
C1529       C  0.12343985  0.94129171  0.85821231    -0.17300
C1530       C  0.10951965  0.95936989  0.86506463     0.11100
S1531       S  0.05071883  0.85405333  0.92294280    -0.32300
S1532       S  0.13343860  0.50065801  0.84555784    -0.32300
H1533       H  0.12795202  0.51663697  0.87830363     0.29100
H1534       H  0.06015770  0.83888548  0.89293180     0.29100
H1535       H  0.03682543  0.90199704  0.92604207     0.19700
H1536       H  0.14806471  0.95251743  0.83987138     0.19700
C1537       C  0.37939148  0.60060328  0.71514120    -0.06200
C1538       C  0.36251733  0.56707903  0.72805682    -0.17300
C1539       C  0.37851327  0.55094458  0.71998213     0.11000
C1540       C  0.41251712  0.56895553  0.69914722    -0.06100
C1541       C  0.42926744  0.60246383  0.68633677    -0.17300
C1542       C  0.41325950  0.61849127  0.69425969     0.11100
S1543       S  0.35403710  0.50720707  0.73642209    -0.32300
S1544       S  0.43833632  0.66267765  0.67910250    -0.32300
H1545       H  0.42548383  0.67351132  0.71072535     0.29100
H1546       H  0.36743551  0.99616737  0.70005356     0.29100
H1547       H  0.33646796  0.55324107  0.74395186     0.19700
H1548       H  0.45585860  0.61716145  0.67197950     0.19700
C1549       C  0.39771024  0.78764776  0.74775056    -0.06200
C1550       C  0.42541729  0.80729068  0.71879092    -0.17300
C1551       C  0.43920417  0.84136046  0.71206466     0.11000
C1552       C  0.42723197  0.85772534  0.73649176    -0.06100
C1553       C  0.40089080  0.83900245  0.76682130    -0.17300
C1554       C  0.38538314  0.80393690  0.77211134     0.11100
S1555       S  0.46862789  0.86098619  0.66898274    -0.32300
S1556       S  0.34772088  0.78063963  0.80764153    -0.32300
H1557       H  0.32708939  0.75139598  0.78374716     0.29100
H1558       H  0.44709539  0.86658329  0.65551982     0.29100
H1559       H  0.43453540  0.79497714  0.69938150     0.19700
H1560       H  0.39099699  0.85113663  0.78514839     0.19700
C1561       C  0.12764860  0.56082754  0.74830374    -0.06200
C1562       C  0.13874165  0.54014524  0.74287101    -0.17300
C1563       C  0.17319300  0.55440326  0.74803744     0.11000
C1564       C  0.19673033  0.58978106  0.75903623    -0.06100
C1565       C  0.18462716  0.60940281  0.76805395    -0.17300
C1566       C  0.15020490  0.59525314  0.76282272     0.11100
S1567       S  0.18665588  0.52726378  0.73743273    -0.32300
S1568       S  0.13546648  0.62139832  0.77379556    -0.32300
H1569       H  0.16710871  0.65164380  0.78590062     0.29100
H1570       H  0.21496303  0.54666364  0.75958197     0.29100
H1571       H  0.12136399  0.51355288  0.73204178     0.19700
H1572       H  0.20300828  0.63647188  0.77683162     0.19700
C1573       C  0.41311611  0.57011431  0.96094186    -0.06200
C1574       C  0.42663275  0.59900461  0.93907915    -0.17300
C1575       C  0.41249770  0.61681712  0.94496047     0.11000
C1576       C  0.38395758  0.60589643  0.97346515    -0.06100
C1577       C  0.37041119  0.57733573  0.99567120    -0.17300
C1578       C  0.38403692  0.55889801  0.98927693     0.11100
S1579       S  0.43282816  0.65400486  0.91587085    -0.32300
S1580       S  0.36144990  0.52015250  0.01646305    -0.32300
H1581       H  0.36001254  0.99834678  0.98187960     0.29100
H1582       H  0.42747340  0.67335236  0.94422556     0.29100
H1583       H  0.44895407  0.60835585  0.91743256     0.19700
H1584       H  0.34799941  0.56845344  0.01706265     0.19700
C1585       C  0.42117121  0.85272709  0.96842039    -0.06200
C1586       C  0.44058990  0.84005419  0.96298339    -0.17300
C1587       C  0.42479873  0.80569513  0.97156927     0.11000
C1588       C  0.38888883  0.78342374  0.98641156    -0.06100
C1589       C  0.36931379  0.79583273  0.49053051    -0.17300
C1590       C  0.38579332  0.83035925  0.48176582     0.11100
S1591       S  0.45128817  0.79122368  0.96123622    -0.32300
S1592       S  0.35944077  0.84501093  0.49129393    -0.32300
H1593       H  0.38699820  0.87911321  0.50265761     0.29100
H1594       H  0.43120014  0.76364417  0.98684895     0.29100
H1595       H  0.46801957  0.85671869  0.95082787     0.19700
H1596       H  0.34138822  0.77880012  0.50068443     0.19700
C1597       C  0.12197547  0.55157996  0.00535990    -0.06200
C1598       C  0.14373682  0.58347005  0.52245973    -0.17300
C1599       C  0.17869869  0.59879899  0.52661164     0.11000
C1600       C  0.19285362  0.58304019  0.01289316    -0.06100
C1601       C  0.17005856  0.54814949  0.00079526    -0.17300
C1602       C  0.13462698  0.53195722  0.99729063     0.11100
S1603       S  0.20561278  0.64284698  0.54541286    -0.32300
S1604       S  0.10750771  0.48755755  0.97917634    -0.32300
H1605       H  0.13047561  0.48011492  0.98262266     0.29100
H1606       H  0.23510031  0.65471207  0.51817555     0.29100
H1607       H  0.13435416  0.59860514  0.53036694     0.19700
H1608       H  0.18077862  0.53432612  0.99203921     0.19700
C1609       C  0.32651077  0.65973253  0.82624759    -0.06200
C1610       C  0.30109652  0.65975677  0.85190154    -0.17300
C1611       C  0.29891298  0.65921910  0.89207700     0.11000
C1612       C  0.32144743  0.65616308  0.90903788    -0.06100
C1613       C  0.35021292  0.66191599  0.88376485    -0.17300
C1614       C  0.35387611  0.66518614  0.84380631     0.11100
S1615       S  0.26876423  0.66628607  0.91843248    -0.32300
S1616       S  0.39669650  0.68126079  0.81910662    -0.32300
H1617       H  0.39688880  0.69830473  0.79023149     0.29100
H1618       H  0.28670306  0.68323709  0.95047038     0.29100
H1619       H  0.28391332  0.66276528  0.84075523     0.19700
H1620       H  0.37209413  0.66705653  0.89541641     0.19700
C1621       C  0.32162046  0.65763057  0.57700002    -0.06200
C1622       C  0.32334760  0.68351829  0.60129169    -0.17300
C1623       C  0.32132393  0.68349604  0.64155863     0.11000
C1624       C  0.32242948  0.65966504  0.65936072    -0.06100
C1625       C  0.31501968  0.63089248  0.63588169    -0.17300
C1626       C  0.31300159  0.62879940  0.59608359     0.11100
S1627       S  0.31075469  0.71045256  0.66734677    -0.32300
S1628       S  0.29478064  0.58719083  0.57165063    -0.32300
H1629       H  0.29414043  0.57023081  0.60122573     0.29100
H1630       H  0.29215377  0.68989871  0.69968362     0.29100
H1631       H  0.32242172  0.70204127  0.58942865     0.19700
H1632       H  0.30836691  0.60860313  0.64926344     0.19700
C1633       C  0.82329676  0.15945829  0.03297541     0.30000
C1634       C  0.82106893  0.15573460  0.45400365     0.30000
C1635       C  0.84258348  0.14685597  0.00751963    -0.06200
C1636       C  0.78658177  0.13552852  0.01893207    -0.07000
C1637       C  0.84045975  0.19420055  0.01317944    -0.06900
C1638       C  0.84115416  0.14460216  0.46779809    -0.06200
C1639       C  0.78558930  0.13294030  0.47965975    -0.07000
C1640       C  0.83887441  0.19178472  0.47338767    -0.06900
C1641       C  0.85647420  0.12935119  0.45168416    -0.32300
N1642       N  0.86974021  0.12529204  0.47921214     0.14200
C1643       C  0.86123205  0.13565814  0.01344662    -0.32300
H1644       H  0.86792235  0.13472159  0.04047942     0.16200
C1645       C  0.75041909  0.11005290  0.47451522    -0.31300
N1646       N  0.73042599  0.10087586  0.00864139     0.12900
C1647       C  0.75225468  0.11595078  0.03626795    -0.31300
C1648       C  0.85716390  0.22458268  0.45987747    -0.31600
N1649       N  0.87051132  0.24738500  0.99011757     0.13400
H1650       H  0.86108137  0.23136671  0.43061175     0.16100
C1651       C  0.86074435  0.22961775  0.02234947    -0.31600
H1652       H  0.86893984  0.24198163  0.04982888     0.16100
H1653       H  0.74379775  0.11396376  0.06658805     0.16100
H1654       H  0.85688049  0.12052025  0.42237553     0.16100
H1655       H  0.73956602  0.10155822  0.44759304     0.16100
C1656       C  0.82478995  0.16128322  0.20378820     0.30000
C1657       C  0.82501865  0.15930166  0.28234304     0.30000
C1658       C  0.84041531  0.14476211  0.21559446    -0.06200
C1659       C  0.84630790  0.19646087  0.22568722    -0.07000
C1660       C  0.78894512  0.14090177  0.22839741    -0.06900
C1661       C  0.83964303  0.14277011  0.25504181    -0.06200
C1662       C  0.84569333  0.19556304  0.26509293    -0.07000
C1663       C  0.78861365  0.13961840  0.26774441    -0.06900
C1664       C  0.85265596  0.12520261  0.25844816    -0.32300
N1665       N  0.86352728  0.11908439  0.22307623     0.14200
C1666       C  0.85618131  0.13073843  0.19682198    -0.32300
H1667       H  0.86250462  0.12946433  0.16636968     0.16200
C1668       C  0.86530154  0.22970525  0.27862984    -0.31300
N1669       N  0.87791359  0.25094157  0.24872651     0.12900
C1670       C  0.86781485  0.23089273  0.21643812    -0.31300
C1671       C  0.75344670  0.11804328  0.28265481    -0.31600
N1672       N  0.73343342  0.10724207  0.25394828     0.13400
H1673       H  0.74277671  0.11016550  0.31187146     0.16100
C1674       C  0.75465457  0.12084003  0.22084649    -0.31600
H1675       H  0.74566966  0.11674970  0.19341814     0.16100
H1676       H  0.87508735  0.24091139  0.18812649     0.16100
H1677       H  0.85476386  0.11787980  0.28461230     0.16100
H1678       H  0.86979639  0.23834185  0.30796605     0.16100
O1679       O  0.56069351  0.47548884  0.36865560    -0.75300
O1680       O  0.54173944  0.45423688  0.42834828    -0.54200
C1681       C  0.55881605  0.45877236  0.39526970     0.78400
O1682       O  0.56467694  0.12051378  0.41890387    -0.59900
O1683       O  0.51860805  0.10001786  0.38598171    -0.53000
C1684       C  0.54837787  0.12467403  0.39809079     0.70400
O1685       O  0.59176679  0.06520149  0.47909959    -0.74500
O1686       O  0.56324769  0.00815549  0.49125035    -0.55100
C1687       C  0.59008962  0.04071717  0.49183270     0.76400
O1688       O  0.53631786  0.53678073  0.31365507    -0.59600
O1689       O  0.00065980  0.05027801  0.32402121    -0.52800
C1690       C  0.00941455  0.03158304  0.30940827     0.73000
Zr1691     Zr  0.53511555  0.50341549  0.35887932     2.54700
O1692       O  0.60097225  0.05203056  0.34325366    -0.80200
O1693       O  0.03557854  0.47210524  0.30453748    -0.93600
Zr1694     Zr  0.55593284  0.07231899  0.44778137     2.64700
O1695       O  0.61881585  0.11426189  0.42702461    -0.98600
O1696       O  0.56394138  0.10865198  0.50465802    -0.80600
O1697       O  0.55537622  0.02448528  0.42266108    -0.84000
O1698       O  0.53923386  0.05517239  0.38581485    -2.18700
O1699       O  0.89849887  0.44774158  0.36976545    -0.67400
O1700       O  0.92386104  0.50486227  0.36379740    -0.52000
C1701       C  0.89841415  0.47204358  0.36022410     0.71400
O1702       O  0.94122457  0.95768277  0.01122093    -0.60300
O1703       O  0.47815538  0.44887964  0.02031424    -0.52300
C1704       C  0.96094425  0.46086963  0.03351190     0.73200
O1705       O  0.92696889  0.03561178  0.48001601    -0.71700
O1706       O  0.94810281  0.05852058  0.42113404    -0.50400
C1707       C  0.93022212  0.05368352  0.45391131     0.74600
O1708       O  0.92315768  0.39412846  0.43465302    -0.67000
O1709       O  0.97124751  0.41282874  0.46229445    -0.54200
C1710       C  0.93995602  0.38894205  0.45330253     0.72900
Zr1711     Zr  0.93436589  0.44283783  0.40349766     2.77500
O1712       O  0.87274177  0.40051303  0.43044320    -0.97800
O1713       O  0.92828221  0.40824706  0.34576037    -0.78600
Zr1714     Zr  0.95471027  0.00978313  0.49026330     2.70100
O1715       O  0.90310625  0.48775861  0.03710316    -0.79800
O1716       O  0.48084378  0.05375351  0.04233100    -0.98900
Zr1717     Zr  0.50875397  0.47350479  0.45848393     2.21500
Zr1718     Zr  0.97919979  0.03708518  0.38947825     2.11100
O1719       O  0.93493329  0.49065538  0.43039201    -2.47600
O1720       O  0.95260242  0.46206291  0.46375506    -0.79600
O1721       O  0.98129302  0.49252074  0.37462938    -0.71800
O1722       O  0.51301959  0.02492457  0.48745433    -2.32800
O1723       O  0.99140406  0.45707973  0.39730432    -2.29000
O1724       O  0.49893970  0.05779497  0.45159608    -0.73600
H1725       H  0.55619572  0.07541897  0.37013784     0.78400
H1726       H  0.52208050  0.03333705  0.01241461     0.79500
H1727       H  0.91204635  0.48527834  0.43205905     0.81700
H1728       H  0.99015231  0.43699746  0.38816703     0.79300
H1729       H  0.56470769  0.09732785  0.52516242     0.42400
H1730       H  0.49251104  0.07602699  0.02975442     0.41300
H1731       H  0.88308349  0.46948980  0.02272820     0.41000
H1732       H  0.86544466  0.41465307  0.44266617     0.38900
H1733       H  0.91596516  0.38444035  0.35483112     0.42100
H1734       H  0.02166399  0.44810715  0.31371249     0.36900
H1735       H  0.61237856  0.05603199  0.36592721     0.43000
H1736       H  0.62063529  0.11299978  0.39890510     0.39400
H1737       H  0.85909909  0.38876558  0.40831170     0.44300
H1738       H  0.55716399  0.47598677  0.29596619     0.43000
H1739       H  0.62496154  0.13745706  0.43421192     0.43200
H1740       H  0.96082548  0.05230770  0.05715143     0.43500
O1741       O  0.54379746  0.45788908  0.13237243    -0.75300
O1742       O  0.53913611  0.45524332  0.19640661    -0.54200
C1743       C  0.54923712  0.45039852  0.16232224     0.78400
O1744       O  0.56351808  0.11156731  0.14056619    -0.59900
O1745       O  0.01588356  0.08716241  0.10879523    -0.53000
C1746       C  0.54644516  0.11345488  0.11842555     0.70400
O1747       O  0.59712907  0.06838061  0.21062862    -0.74500
O1748       O  0.56711840  0.01656721  0.24032088    -0.55100
C1749       C  0.59488688  0.04774839  0.23222646     0.76400
O1750       O  0.50670710  0.50226905  0.06659917    -0.59600
O1751       O  0.95959838  0.99940960  0.07501043    -0.52800
C1752       C  0.97673985  0.98899122  0.05878963     0.73000
Zr1753     Zr  0.51455430  0.47992649  0.11533060     2.54700
O1754       O  0.56444358  0.99589730  0.06841995    -0.80200
O1755       O  0.97958388  0.42348479  0.08343235    -0.93600
Zr1756     Zr  0.55979939  0.06819398  0.17294834     2.64700
O1757       O  0.61151823  0.08902907  0.12647791    -0.98600
O1758       O  0.59439199  0.12341418  0.20809365    -0.80600
O1759       O  0.54738320  0.01273190  0.16646535    -0.84000
O1760       O  0.52874898  0.03626083  0.12051574    -2.18700
O1761       O  0.88574622  0.44052775  0.14293968    -0.67400
O1762       O  0.91414766  0.49473788  0.11973029    -0.52000
C1763       C  0.88721283  0.46261544  0.12467495     0.71400
O1764       O  0.95639369  0.99000725  0.28382734    -0.60300
O1765       O  0.48800307  0.47328689  0.28697886    -0.52300
C1766       C  0.98171909  0.49627624  0.29794047     0.73200
O1767       O  0.93748268  0.04959722  0.22419520    -0.71700
O1768       O  0.94726859  0.05684736  0.16017674    -0.50400
C1769       C  0.93443159  0.05891677  0.19398554     0.74600
O1770       O  0.91712911  0.39500040  0.21351100    -0.67000
O1771       O  0.96908759  0.41833868  0.23608744    -0.54200
C1772       C  0.93736361  0.39264411  0.22949714     0.72900
Zr1773     Zr  0.92215270  0.44017610  0.18248429     2.77500
O1774       O  0.87369472  0.42264528  0.23247471    -0.97800
O1775       O  0.88663148  0.38580811  0.14612901    -0.78600
Zr1776     Zr  0.97086486  0.03200451  0.24053267     2.70100
O1777       O  0.93309686  0.53214106  0.29562053    -0.79800
O1778       O  0.51243150  0.08737324  0.26880383    -0.98900
Zr1779     Zr  0.50830423  0.47901222  0.22029109     2.21500
Zr1780     Zr  0.97378522  0.02892422  0.13525350     2.11100
O1781       O  0.93548696  0.49627359  0.19033458    -2.47600
O1782       O  0.95470214  0.47378172  0.23325424    -0.79600
O1783       O  0.96075349  0.47305181  0.12981693    -0.71800
O1784       O  0.52352924  0.03680124  0.22792102    -2.32800
O1785       O  0.97570334  0.44684533  0.16917586    -2.29000
O1786       O  0.50697377  0.06244373  0.18564699    -0.73600
H1787       H  0.54333978  0.05082731  0.09875830     0.78400
H1788       H  0.53871243  0.05081549  0.24740395     0.79500
H1789       H  0.91342348  0.49257265  0.19354439     0.81700
H1790       H  0.97141781  0.42479164  0.16547957     0.79300
H1791       H  0.58254863  0.11805991  0.23452992     0.42400
H1792       H  0.52303744  0.10390925  0.24783042     0.41300
H1793       H  0.90842906  0.51336015  0.29021461     0.41000
H1794       H  0.88157678  0.44448957  0.24697378     0.38900
H1795       H  0.86608889  0.36936374  0.16449141     0.42100
H1796       H  0.95491752  0.41194466  0.09494233     0.36900
H1797       H  0.58553272  0.01286752  0.08189812     0.43000
H1798       H  0.61324631  0.06985510  0.12339452     0.39400
H1799       H  0.85446774  0.41691673  0.21899337     0.44300
H1800       H  0.48772327  0.41022432  0.09263939     0.43000
H1801       H  0.60482902  0.08935550  0.10187059     0.43200
H1802       H  0.00083395  0.09689901  0.28183847     0.43500
C1803       C  0.66286049  0.35101218  0.31791508     0.30000
C1804       C  0.66527833  0.35612085  0.39716466     0.30000
C1805       C  0.64899224  0.36927716  0.34235500    -0.06200
C1806       C  0.64300655  0.31668091  0.33911319    -0.07000
C1807       C  0.69991945  0.37226033  0.33161051    -0.06900
C1808       C  0.64864831  0.37032518  0.38219633    -0.06200
C1809       C  0.64366287  0.31937378  0.37877348    -0.07000
C1810       C  0.70069049  0.37433280  0.37137335    -0.06900
C1811       C  0.63072135  0.38287128  0.39790036    -0.32300
N1812       N  0.62307923  0.39211021  0.36934959     0.14200
C1813       C  0.63504914  0.38506180  0.33548949    -0.32300
H1814       H  0.63284051  0.39033175  0.30799424     0.16200
C1815       C  0.62377188  0.28615517  0.39177794    -0.31300
N1816       N  0.61245975  0.26373506  0.36159382     0.12900
C1817       C  0.62409060  0.28174927  0.32917623    -0.31300
C1818       C  0.73532789  0.39428289  0.37774488    -0.31600
N1819       N  0.75575954  0.40458462  0.34368385     0.13400
H1820       H  0.74508391  0.40081655  0.40517655     0.16100
C1821       C  0.73479995  0.39198824  0.31541739    -0.31600
H1822       H  0.74460375  0.39735965  0.28556978     0.16100
H1823       H  0.61935629  0.27031928  0.30073012     0.16100
H1824       H  0.62313288  0.38475953  0.42782989     0.16100
H1825       H  0.61821038  0.27841353  0.42093880     0.16100
C1826       C  0.65995968  0.34898923  0.06839203     0.30000
C1827       C  0.65986487  0.34686187  0.14697903     0.30000
C1828       C  0.64176128  0.36223615  0.09582307    -0.06200
C1829       C  0.64034057  0.31259284  0.08520936    -0.07000
C1830       C  0.69606658  0.37062844  0.08372065    -0.06900
C1831       C  0.64259355  0.36180533  0.13518763    -0.06200
C1832       C  0.64104316  0.31185910  0.12436514    -0.07000
C1833       C  0.69586917  0.37013282  0.12305980    -0.06900
C1834       C  0.63077710  0.37961019  0.15367014    -0.32300
N1835       N  0.62054029  0.38893834  0.12790824     0.14200
C1836       C  0.62614138  0.37745713  0.09276840    -0.32300
H1837       H  0.61901722  0.37968092  0.06684422     0.16200
C1838       C  0.62378537  0.27768339  0.13300902    -0.31300
N1839       N  0.61218923  0.25758181  0.10087180     0.12900
C1840       C  0.62092865  0.27827294  0.07195774    -0.31300
C1841       C  0.73010553  0.39435305  0.13077171    -0.31600
N1842       N  0.75117413  0.40756644  0.09751764     0.13400
H1843       H  0.73947914  0.40133684  0.15844794     0.16100
C1844       C  0.73089303  0.39349318  0.06849300    -0.31600
H1845       H  0.74080884  0.39904469  0.03865118     0.16100
H1846       H  0.61458426  0.26900637  0.04316748     0.16100
H1847       H  0.63082482  0.38647965  0.18371152     0.16100
H1848       H  0.62076394  0.26820077  0.16045339     0.16100
C1849       C  0.65959592  0.34442339  0.19102545    -0.06200
C1850       C  0.63137723  0.33862720  0.21720248    -0.17300
C1851       C  0.62991688  0.33752210  0.25720228     0.11000
C1852       C  0.65945439  0.34623611  0.27363710    -0.06100
C1853       C  0.68458312  0.34626818  0.24731961    -0.17300
C1854       C  0.68399233  0.34360122  0.20720225     0.11100
S1855       S  0.58738478  0.32062224  0.28358524    -0.32300
S1856       S  0.71281820  0.33523256  0.17989857    -0.32300
H1857       H  0.69310458  0.31760606  0.14911392     0.29100
H1858       H  0.59024181  0.30769866  0.31430889     0.29100
H1859       H  0.60873872  0.33260769  0.20628887     0.19700
H1860       H  0.70370084  0.34583406  0.25803652     0.19700
C1861       C  0.66774900  0.35783369  0.44138754    -0.06200
C1862       C  0.67144851  0.33494562  0.45593804    -0.17300
C1863       C  0.67090127  0.33236959  0.49534419     0.11000
C1864       C  0.66333873  0.35174643  0.02369258    -0.06100
C1865       C  0.66636910  0.37846874  0.50826139    -0.17300
C1866       C  0.67033503  0.38309629  0.46850785     0.11100
S1867       S  0.68328295  0.30659794  0.50588169    -0.32300
S1868       S  0.68655036  0.42560641  0.45545481    -0.32300
H1869       H  0.70478056  0.42622403  0.42020398     0.29100
H1870       H  0.69955587  0.32635338  0.03885477     0.29100
H1871       H  0.67639091  0.31957177  0.43602130     0.19700
H1872       H  0.66954402  0.39941448  0.02758594     0.19700
C1873       C  0.56332656  0.14939458  0.10555551    -0.06200
C1874       C  0.59989276  0.17512109  0.10757498    -0.17300
C1875       C  0.61683535  0.21052056  0.10335298     0.11000
C1876       C  0.59716823  0.22129158  0.09746482    -0.06100
C1877       C  0.56164544  0.19590379  0.09156357    -0.17300
C1878       C  0.54449431  0.16018663  0.09542489     0.11100
S1879       S  0.66365181  0.24104279  0.10652337    -0.32300
S1880       S  0.99703530  0.13021300  0.08983050    -0.35700
H1881       H  0.98697577  0.11383004  0.12440242     0.29100
H1882       H  0.67036277  0.26632697  0.08346947     0.29100
H1883       H  0.61550453  0.16780068  0.11355902     0.19700
H1884       H  0.54669683  0.20414664  0.08609425     0.19700
C1885       C  0.78834535  0.42594660  0.09436805    -0.06200
C1886       C  0.80110470  0.40724577  0.08147346    -0.17300
C1887       C  0.83419323  0.41933899  0.08916769     0.11000
C1888       C  0.85496253  0.45092142  0.11005973    -0.06100
C1889       C  0.84349368  0.47114969  0.11975210    -0.17300
C1890       C  0.81026424  0.45880954  0.11242969     0.11100
S1891       S  0.84785501  0.39291292  0.07256459    -0.32300
S1892       S  0.79606376  0.48475839  0.12929898    -0.32300
H1893       H  0.76880759  0.46850483  0.10601128     0.29100
H1894       H  0.88427809  0.42060491  0.06890511     0.29100
H1895       H  0.78402821  0.38184388  0.06784547     0.19700
H1896       H  0.85963470  0.49580169  0.13510048     0.19700
C1897       C  0.56880308  0.43567770  0.15602304    -0.06200
C1898       C  0.59065183  0.44279085  0.12129894    -0.17300
C1899       C  0.60969613  0.42986805  0.11247115     0.11000
C1900       C  0.60498578  0.40657444  0.13739737    -0.06100
C1901       C  0.58423814  0.40045451  0.17272939    -0.17300
C1902       C  0.56695262  0.41521059  0.18274195     0.11100
S1903       S  0.64193745  0.44709603  0.07088521    -0.32300
S1904       S  0.54393037  0.40696247  0.23030662    -0.32300
H1905       H  0.01128660  0.39851576  0.21923754     0.29100
H1906       H  0.66675604  0.44784581  0.08710149     0.29100
H1907       H  0.59421376  0.45992596  0.10120913     0.19700
H1908       H  0.58086453  0.38343200  0.19276276     0.19700
C1909       C  0.56511664  0.16025402  0.38657937    -0.06200
C1910       C  0.54447230  0.17146131  0.39027127    -0.17300
C1911       C  0.55906923  0.20489529  0.37958576     0.11000
C1912       C  0.59482442  0.22745205  0.36460451    -0.06100
C1913       C  0.61521420  0.21604278  0.35969343    -0.17300
C1914       C  0.60072467  0.18257609  0.37038787     0.11100
S1915       S  0.53156837  0.21824257  0.38727994    -0.32300
S1916       S  0.62767608  0.16852792  0.36246324    -0.32300
H1917       H  0.65676834  0.19733335  0.34131601     0.29100
H1918       H  0.55096594  0.24430588  0.35978904     0.29100
H1919       H  0.51702982  0.15432433  0.40226461     0.19700
H1920       H  0.64287863  0.23404611  0.34886593     0.19700
C1921       C  0.79343983  0.42485364  0.33936990    -0.06200
C1922       C  0.81339970  0.45812898  0.35651017    -0.17300
C1923       C  0.84909200  0.47612321  0.36051004     0.11000
C1924       C  0.86523759  0.46030635  0.34692772    -0.06100
C1925       C  0.84582447  0.42827145  0.32668964    -0.17300
C1926       C  0.81014673  0.41028784  0.32313009     0.11100
S1927       S  0.87199697  0.51723249  0.38659319    -0.32300
S1928       S  0.78659400  0.36746009  0.30091803    -0.32300
H1929       H  0.75529974  0.35224100  0.32609440     0.29100
H1930       H  0.84453693  0.51987881  0.39283808     0.29100
H1931       H  0.80014783  0.46894317  0.36876713     0.19700
H1932       H  0.85779971  0.41583896  0.31607925     0.19700
C1933       C  0.57619213  0.44234781  0.38743429    -0.06200
C1934       C  0.55891403  0.40978898  0.40354057    -0.17300
C1935       C  0.57322109  0.39222684  0.39690431     0.11000
C1936       C  0.60592328  0.40768880  0.37419574    -0.06100
C1937       C  0.62303203  0.43987009  0.35755133    -0.17300
C1938       C  0.60884999  0.45764465  0.36434618     0.11100
S1939       S  0.54795266  0.34969852  0.41702558    -0.32300
S1940       S  0.63271436  0.99818478  0.34056393    -0.32300
H1941       H  0.62907766  0.01530082  0.37339078     0.29100
H1942       H  0.55952072  0.33604562  0.38746265     0.29100
H1943       H  0.53364946  0.39754757  0.42089155     0.19700
H1944       H  0.64836307  0.45182117  0.34045170     0.19700
C1945       C  0.88123511  0.10396909  0.21478245    -0.06200
C1946       C  0.86341122  0.06947899  0.22492885    -0.17300
C1947       C  0.87956747  0.05357399  0.21670343     0.11000
C1948       C  0.91471524  0.07286574  0.19887482    -0.06100
C1949       C  0.93239897  0.10730863  0.18853022    -0.17300
C1950       C  0.91606022  0.12301547  0.19622098     0.11100
S1951       S  0.85385288  0.00850869  0.22903995    -0.32300
S1952       S  0.94152251  0.16790721  0.18335760    -0.32300
H1953       H  0.92622585  0.17706097  0.21399885     0.29100
H1954       H  0.86698032  0.49780824  0.20400677     0.29100
H1955       H  0.83652446  0.05475743  0.23874207     0.19700
H1956       H  0.95969101  0.12272289  0.17616687     0.19700
C1957       C  0.89632687  0.28803153  0.24927158    -0.06200
C1958       C  0.92321469  0.30741793  0.21957662    -0.17300
C1959       C  0.93592081  0.34093733  0.21226124     0.11000
C1960       C  0.92449113  0.35742212  0.23736767    -0.06100
C1961       C  0.89924566  0.33915198  0.26859860    -0.17300
C1962       C  0.88418739  0.30426930  0.27409595     0.11100
S1963       S  0.96291221  0.35944496  0.16764473    -0.32300
S1964       S  0.84708464  0.28102443  0.31026575    -0.32300
H1965       H  0.82591307  0.25195582  0.28639437     0.29100
H1966       H  0.94043222  0.36474978  0.15614608     0.29100
H1967       H  0.93216288  0.29511586  0.19984515     0.19700
H1968       H  0.88964232  0.35136647  0.28732240     0.19700
C1969       C  0.62746267  0.06042593  0.24685037    -0.06200
C1970       C  0.63901913  0.04017803  0.23925151    -0.17300
C1971       C  0.67337775  0.05425659  0.24437913     0.11000
C1972       C  0.69624529  0.08889673  0.25794799    -0.06100
C1973       C  0.68369248  0.10796942  0.26889705    -0.17300
C1974       C  0.64946596  0.09413662  0.26328604     0.11100
S1975       S  0.68765246  0.02804271  0.23031862    -0.32300
S1976       S  0.63445099  0.11991804  0.27605596    -0.32300
H1977       H  0.66491297  0.14865818  0.29175298     0.29100
H1978       H  0.71569279  0.04625628  0.25278328     0.29100
H1979       H  0.62209425  0.01418553  0.22676092     0.19700
H1980       H  0.70169857  0.13458206  0.27925821     0.19700
C1981       C  0.91348424  0.07123310  0.46176212    -0.06200
C1982       C  0.92746905  0.10015867  0.43964727    -0.17300
C1983       C  0.91415661  0.11873060  0.44550738     0.11000
C1984       C  0.88587277  0.10847143  0.47408400    -0.06100
C1985       C  0.87201104  0.08004670  0.49670256    -0.17300
C1986       C  0.88491858  0.06095993  0.49050841     0.11100
S1987       S  0.93509654  0.15595623  0.41628752    -0.32300
S1988       S  0.86209908  0.02269600  0.51859922    -0.32300
H1989       H  0.86165198  0.50249174  0.48869054     0.29100
H1990       H  0.92994476  0.17554587  0.44447427     0.29100
H1991       H  0.94945662  0.10888619  0.41771831     0.19700
H1992       H  0.84987144  0.07176148  0.51828603     0.19700
C1993       C  0.92212977  0.35315178  0.46577734    -0.06200
C1994       C  0.94136433  0.34028623  0.46153346    -0.17300
C1995       C  0.92531123  0.30617792  0.47160376     0.11000
C1996       C  0.88926842  0.28428707  0.48595578    -0.06100
C1997       C  0.86933335  0.29611768  0.99106636    -0.17300
C1998       C  0.88500583  0.33034968  0.98216704     0.11100
S1999       S  0.95158660  0.29144464  0.46432781    -0.32300
S2000       S  0.85722526  0.34334697  0.98981796    -0.32300
H2001       H  0.88368245  0.37766349  0.00177713     0.29100
H2002       H  0.93155680  0.26566353  0.49210281     0.29100
H2003       H  0.96886856  0.35665950  0.44961233     0.19700
H2004       H  0.84124954  0.27835124  0.00028457     0.19700
C2005       C  0.62266815  0.05140142  0.50568488    -0.06200
C2006       C  0.64406726  0.08495515  0.02219515    -0.17300
C2007       C  0.67924826  0.10101518  0.02604515     0.11000
C2008       C  0.69339642  0.08294542  0.51421089    -0.06100
C2009       C  0.67156792  0.04905309  0.49900300    -0.17300
C2010       C  0.63634898  0.03292589  0.49471288     0.11100
S2011       S  0.70577166  0.14548246  0.04378425    -0.32300
S2012       S  0.61069507  0.99020959  0.47212706    -0.32300
H2013       H  0.63795860  0.98742752  0.46206124     0.29100
H2014       H  0.73617938  0.15698846  0.01830062     0.29100
H2015       H  0.63432200  0.09981015  0.02960756     0.19700
H2016       H  0.68299082  0.03610437  0.48857942     0.19700
C2017       C  0.82569153  0.15996415  0.32678455    -0.06200
C2018       C  0.79965744  0.15886769  0.35257423    -0.17300
C2019       C  0.79784003  0.15867437  0.39277067     0.11000
C2020       C  0.82119600  0.15669514  0.40962082    -0.06100
C2021       C  0.85027984  0.16335394  0.38419666    -0.17300
C2022       C  0.85369198  0.16660750  0.34426364     0.11100
S2023       S  0.76727726  0.16515542  0.41923236    -0.32300
S2024       S  0.89685296  0.18397649  0.31951690    -0.32300
H2025       H  0.89629105  0.20016471  0.29032303     0.29100
H2026       H  0.78535862  0.18245013  0.45112982     0.29100
H2027       H  0.78179706  0.16098797  0.34155206     0.19700
H2028       H  0.87254905  0.16922241  0.39574529     0.19700
C2029       C  0.82207250  0.15897636  0.07753783    -0.06200
C2030       C  0.82367290  0.18485245  0.10173041    -0.17300
C2031       C  0.82142892  0.18479589  0.14200521     0.11000
C2032       C  0.82239160  0.16090838  0.15988779    -0.06100
C2033       C  0.81501203  0.13212227  0.13647562    -0.17300
C2034       C  0.81303455  0.13001291  0.09670760     0.11100
S2035       S  0.81059848  0.21161486  0.16760801    -0.32300
S2036       S  0.79475537  0.08837859  0.07235719    -0.32300
H2037       H  0.78248343  0.06835652  0.10487887     0.29100
H2038       H  0.79216142  0.19113616  0.20004467     0.29100
H2039       H  0.82276542  0.20334937  0.08976292     0.19700
H2040       H  0.80870904  0.10995373  0.14978487     0.19700
C2041       C  0.82399516  0.16014905  0.53289828     0.30000
C2042       C  0.82108431  0.15562834  0.95404841     0.30000
C2043       C  0.84342204  0.14774063  0.50726059    -0.06200
C2044       C  0.78709174  0.13584072  0.51917222    -0.07000
C2045       C  0.84062473  0.19466840  0.51288534    -0.06900
C2046       C  0.84072472  0.14405745  0.96798952    -0.06200
C2047       C  0.78533625  0.13285242  0.97939423    -0.07000
C2048       C  0.83902890  0.19162566  0.97365189    -0.06900
C2049       C  0.85626699  0.12900901  0.95190494    -0.32300
N2050       N  0.86907964  0.12461844  0.97962361     0.14200
C2051       C  0.86224566  0.13667468  0.51302151    -0.32300
H2052       H  0.86913446  0.13590111  0.53999630     0.16200
C2053       C  0.75015088  0.10990177  0.97408541    -0.31300
N2054       N  0.73081567  0.10122022  0.50912513     0.12900
C2055       C  0.75278358  0.11636581  0.53665865    -0.31300
C2056       C  0.85756065  0.22457177  0.96042322    -0.31600
N2057       N  0.87022007  0.24762233  0.48936372     0.13400
H2058       H  0.86161208  0.23160345  0.93123566     0.16100
C2059       C  0.86079489  0.23014522  0.52173274    -0.31600
H2060       H  0.86934163  0.24277712  0.54902182     0.16100
H2061       H  0.74444475  0.11448398  0.56700120     0.16100
H2062       H  0.85731757  0.12069947  0.92247664     0.16100
H2063       H  0.73936524  0.10144440  0.94712643     0.16100
C2064       C  0.82738651  0.16302274  0.70378320     0.30000
C2065       C  0.82694783  0.16047791  0.78240792     0.30000
C2066       C  0.84283227  0.14632967  0.71573039    -0.06200
C2067       C  0.84874601  0.19807901  0.72604228    -0.07000
C2068       C  0.79136623  0.14251670  0.72810648    -0.06900
C2069       C  0.84167650  0.14406041  0.75520890    -0.06200
C2070       C  0.84777212  0.19685919  0.76548308    -0.07000
C2071       C  0.79071533  0.14094530  0.76746111    -0.06900
C2072       C  0.85397614  0.12589437  0.75883921    -0.32300
N2073       N  0.86491751  0.11971509  0.72358265     0.14200
C2074       C  0.85824773  0.13189241  0.69716971    -0.32300
H2075       H  0.86468890  0.13058760  0.66675010     0.16200
C2076       C  0.86696603  0.23084673  0.77948948    -0.31300
N2077       N  0.87977910  0.25232925  0.74980770     0.12900
C2078       C  0.87017643  0.23261495  0.71725066    -0.31300
C2079       C  0.75546840  0.11947116  0.78210525    -0.31600
N2080       N  0.73567995  0.10900744  0.75326251     0.13400
H2081       H  0.74457760  0.11158366  0.81128504     0.16100
C2082       C  0.75714613  0.12272622  0.72031026    -0.31600
H2083       H  0.74838752  0.11905502  0.69285083     0.16100
H2084       H  0.87777319  0.24295350  0.68905914     0.16100
H2085       H  0.85546626  0.11811353  0.78507016     0.16100
H2086       H  0.87098354  0.23920272  0.80896597     0.16100
O2087       O  0.56035973  0.47581123  0.86993394    -0.75300
O2088       O  0.54170702  0.45485778  0.92969494    -0.54200
C2089       C  0.55850122  0.45907869  0.89645305     0.78400
O2090       O  0.56496738  0.12067414  0.91782740    -0.59900
O2091       O  0.51865204  0.09995859  0.88526675    -0.53000
C2092       C  0.54860625  0.12473585  0.89692774     0.70400
O2093       O  0.59157732  0.06453895  0.97785766    -0.74500
O2094       O  0.56244384  0.00795730  0.99262163    -0.55100
C2095       C  0.58966935  0.04035403  0.99182910     0.76400
O2096       O  0.53702854  0.53786102  0.81500193    -0.59600
O2097       O  0.99864360  0.04934406  0.82398449    -0.52800
C2098       C  0.00841106  0.03137873  0.80987281     0.73000
Zr2099     Zr  0.53598263  0.50482515  0.86055202     2.54700
O2100       O  0.60102663  0.05014590  0.84497987    -0.80200
O2101       O  0.03623433  0.47237897  0.80492006    -0.93600
Zr2102     Zr  0.55548742  0.07247369  0.94824561     2.64700
O2103       O  0.61866887  0.11737476  0.93188883    -0.98600
O2104       O  0.56024814  0.10609293  0.00661058    -0.80600
O2105       O  0.55499010  0.02458465  0.92328741    -0.84000
O2106       O  0.53905677  0.05494477  0.88619705    -2.18700
O2107       O  0.89848316  0.44704368  0.86996064    -0.67400
O2108       O  0.92424806  0.50397033  0.86198625    -0.52000
C2109       C  0.89863777  0.47113551  0.85925616     0.71400
O2110       O  0.94013260  0.95644651  0.51112223    -0.60300
O2111       O  0.47876777  0.44799185  0.51893963    -0.52300
C2112       C  0.96161353  0.45991323  0.53205281     0.73200
O2113       O  0.92784453  0.03658561  0.98029090    -0.71700
O2114       O  0.94997148  0.06059024  0.92192060    -0.50400
C2115       C  0.93151332  0.05509705  0.95442636     0.74600
O2116       O  0.92256026  0.39390605  0.93633960    -0.67000
O2117       O  0.97019678  0.41293954  0.96510661    -0.54200
C2118       C  0.93906116  0.38889404  0.95574962     0.72900
Zr2119     Zr  0.93415880  0.44240185  0.90423683     2.77500
O2120       O  0.87203436  0.39957734  0.92922503    -0.97800
O2121       O  0.92812936  0.40705106  0.84722789    -0.78600
Zr2122     Zr  0.95581602  0.01110554  0.99082974     2.70100
O2123       O  0.90137835  0.48447360  0.53461165    -0.79800
O2124       O  0.48174638  0.05405113  0.54137427    -0.98900
Zr2125     Zr  0.50940459  0.47493298  0.96026035     2.21500
Zr2126     Zr  0.98053935  0.03859367  0.89018143     2.11100
O2127       O  0.93474075  0.49042771  0.93022602    -2.47600
O2128       O  0.95192120  0.46192953  0.96473958    -0.79600
O2129       O  0.98098446  0.49180340  0.87474868    -0.71800
O2130       O  0.51273476  0.02519439  0.98827183    -2.32800
O2131       O  0.99108369  0.45658425  0.89879201    -2.29000
O2132       O  0.49854824  0.05793290  0.95189885    -0.73600
H2133       H  0.55604379  0.07514502  0.87050655     0.78400
H2134       H  0.52245324  0.03306858  0.51166236     0.79500
H2135       H  0.91184299  0.48501996  0.93159091     0.81700
H2136       H  0.98977345  0.43637615  0.89007307     0.79300
H2137       H  0.57311172  0.10326894  0.02246198     0.42400
H2138       H  0.49510655  0.07644308  0.52831311     0.41300
H2139       H  0.88267621  0.46443988  0.51993892     0.41000
H2140       H  0.86295072  0.41297322  0.93642003     0.38900
H2141       H  0.92769829  0.41857916  0.82668986     0.42100
H2142       H  0.02189971  0.44816110  0.81348368     0.36900
H2143       H  0.60511883  0.07248913  0.84395156     0.43000
H2144       H  0.62216482  0.11764907  0.90373806     0.39400
H2145       H  0.85995164  0.38499183  0.90687185     0.44300
H2146       H  0.56003916  0.47841957  0.79843235     0.43000
H2147       H  0.62330048  0.13978236  0.94018808     0.43200
H2148       H  0.96152046  0.05184291  0.55642486     0.43500
O2149       O  0.54373528  0.45660479  0.63228657    -0.75300
O2150       O  0.53954995  0.45443923  0.69633664    -0.54200
C2151       C  0.54935344  0.44933542  0.66225737     0.78400
O2152       O  0.56275120  0.11221794  0.64266374    -0.59900
O2153       O  0.01649116  0.08729212  0.60865730    -0.53000
C2154       C  0.54605680  0.11412420  0.62008231     0.70400
O2155       O  0.59860080  0.07034662  0.71081249    -0.74500
O2156       O  0.56903023  0.01883420  0.74097551    -0.55100
C2157       C  0.59670151  0.05006356  0.73262267     0.76400
O2158       O  0.50796512  0.50142411  0.56552481    -0.59600
O2159       O  0.95999108  0.99864813  0.57441737    -0.52800
C2160       C  0.97663282  0.98769649  0.55807580     0.73000
Zr2161     Zr  0.51472950  0.47861594  0.61478363     2.54700
O2162       O  0.56486164  0.99702127  0.56685754    -0.80200
O2163       O  0.98082409  0.42358043  0.58334555    -0.93600
Zr2164     Zr  0.56043116  0.06937303  0.67376251     2.64700
O2165       O  0.61187636  0.09159692  0.62647333    -0.98600
O2166       O  0.59470738  0.12375833  0.71049438    -0.80600
O2167       O  0.54893914  0.01435695  0.66644046    -0.84000
O2168       O  0.52982093  0.03758186  0.62095823    -2.18700
O2169       O  0.88673911  0.44179524  0.64321144    -0.67400
O2170       O  0.91534128  0.49559280  0.61877854    -0.52000
C2171       C  0.88829973  0.46357332  0.62418940     0.71400
O2172       O  0.95621788  0.98902021  0.78313397    -0.60300
O2173       O  0.49014351  0.47432638  0.78698944    -0.52300
C2174       C  0.98234872  0.49628516  0.79793998     0.73200
O2175       O  0.93656305  0.04792897  0.72379446    -0.71700
O2176       O  0.94719651  0.05615110  0.65991089    -0.50400
C2177       C  0.93395338  0.05774300  0.69371039     0.74600
O2178       O  0.91760202  0.39562509  0.71380830    -0.67000
O2179       O  0.96992904  0.41880477  0.73538236    -0.54200
C2180       C  0.93803965  0.39322296  0.72930300     0.72900
Zr2181     Zr  0.92289743  0.44096162  0.68278701     2.77500
O2182       O  0.87462469  0.42375065  0.73295498    -0.97800
O2183       O  0.88667765  0.38686538  0.64626739    -0.78600
Zr2184     Zr  0.97030354  0.03084480  0.73994204     2.70100
O2185       O  0.93789726  0.53677055  0.79652728    -0.79800
O2186       O  0.51368040  0.08800080  0.76814666    -0.98900
Zr2187     Zr  0.50888418  0.47828849  0.71999273     2.21500
Zr2188     Zr  0.97400717  0.02848646  0.63452389     2.11100
O2189       O  0.93674197  0.49720835  0.69053683    -2.47600
O2190       O  0.95584516  0.47476640  0.73328049    -0.79600
O2191       O  0.96146726  0.47325835  0.62987804    -0.71800
O2192       O  0.52436725  0.03768961  0.72849632    -2.32800
O2193       O  0.97625506  0.44722885  0.66927683    -2.29000
O2194       O  0.50724483  0.06299604  0.68619484    -0.73600
H2195       H  0.54455646  0.05233185  0.59931944     0.78400
H2196       H  0.53953509  0.05180539  0.74806916     0.79500
H2197       H  0.91463503  0.49345210  0.69374623     0.81700
H2198       H  0.97176480  0.42506791  0.66552283     0.79300
H2199       H  0.58247767  0.13401931  0.71141647     0.42400
H2200       H  0.52382857  0.10433405  0.74707825     0.41300
H2201       H  0.91284988  0.51810105  0.79277500     0.41000
H2202       H  0.88246790  0.44570298  0.74719331     0.38900
H2203       H  0.90127449  0.37903519  0.63938580     0.42100
H2204       H  0.95588177  0.41374663  0.59109883     0.36900
H2205       H  0.58623977  0.01279308  0.58008413     0.43000
H2206       H  0.60710465  0.07062724  0.61248727     0.39400
H2207       H  0.85521687  0.41769355  0.71952923     0.44300
H2208       H  0.48530299  0.40831052  0.59213004     0.43000
H2209       H  0.61022053  0.10375047  0.60779420     0.43200
H2210       H  0.99875736  0.09521842  0.78193341     0.43500
C2211       C  0.66335701  0.35182303  0.81803778     0.30000
C2212       C  0.66486725  0.35612306  0.89743442     0.30000
C2213       C  0.64931440  0.36995987  0.84249613    -0.06200
C2214       C  0.64311561  0.31723049  0.83887200    -0.07000
C2215       C  0.70016848  0.37276451  0.83228598    -0.06900
C2216       C  0.64867269  0.37071970  0.88235705    -0.06200
C2217       C  0.64324258  0.31947279  0.87860872    -0.07000
C2218       C  0.70048981  0.37438736  0.87209077    -0.06900
C2219       C  0.63066230  0.38315486  0.89809481    -0.32300
N2220       N  0.62282730  0.39227843  0.86960175     0.14200
C2221       C  0.63505452  0.38547261  0.83571153    -0.32300
H2222       H  0.63273304  0.39062652  0.80821700     0.16200
C2223       C  0.62297195  0.28601340  0.89114595    -0.31300
N2224       N  0.61196312  0.26388945  0.86064368     0.12900
C2225       C  0.62418940  0.28237177  0.82846799    -0.31300
C2226       C  0.73498486  0.39379014  0.87890492    -0.31600
N2227       N  0.75570094  0.40421659  0.84503803     0.13400
H2228       H  0.74442435  0.39978901  0.90644660     0.16100
C2229       C  0.73514897  0.39230665  0.81653731    -0.31600
H2230       H  0.74536013  0.39801059  0.78682167     0.16100
H2231       H  0.61989172  0.27131459  0.79983962     0.16100
H2232       H  0.62316080  0.38500975  0.92806198     0.16100
H2233       H  0.61711678  0.27794014  0.92020760     0.16100
C2234       C  0.66078522  0.34898658  0.56794893     0.30000
C2235       C  0.66174689  0.34805334  0.64654896     0.30000
C2236       C  0.64278999  0.36238887  0.59535271    -0.06200
C2237       C  0.64141790  0.31294062  0.58533201    -0.07000
C2238       C  0.69713920  0.37080748  0.58266890    -0.06900
C2239       C  0.64422843  0.36263767  0.63466436    -0.06200
C2240       C  0.64261139  0.31280176  0.62450560    -0.07000
C2241       C  0.69753911  0.37099446  0.62201652    -0.06900
C2242       C  0.63146007  0.37954118  0.65313504    -0.32300
N2243       N  0.62013523  0.38766500  0.62738875     0.14200
C2244       C  0.62580346  0.37616569  0.59232778    -0.32300
H2245       H  0.61775774  0.37735133  0.56651246     0.16200
C2246       C  0.62507597  0.27879956  0.63383235    -0.31300
N2247       N  0.61298647  0.25828775  0.60206338     0.12900
C2248       C  0.62157978  0.27849626  0.57272708    -0.31300
C2249       C  0.73204959  0.39511088  0.62887761    -0.31600
N2250       N  0.75259183  0.40741503  0.59516995     0.13400
H2251       H  0.74197649  0.40266943  0.65628552     0.16100
C2252       C  0.73178299  0.39295854  0.56663432    -0.31600
H2253       H  0.74119920  0.39772851  0.53660554     0.16100
H2254       H  0.61480340  0.26878846  0.54413320     0.16100
H2255       H  0.63155263  0.38660781  0.68312308     0.16100
H2256       H  0.62218051  0.26967588  0.66146365     0.16100
C2257       C  0.66149676  0.34597584  0.69072925    -0.06200
C2258       C  0.63276649  0.33938543  0.71662696    -0.17300
C2259       C  0.63104208  0.33835143  0.75670762     0.11000
C2260       C  0.66056586  0.34748875  0.77357664    -0.06100
C2261       C  0.68623454  0.34818634  0.74747975    -0.17300
C2262       C  0.68612011  0.34577896  0.70727660     0.11100
S2263       S  0.58831218  0.32129281  0.78264382    -0.32300
S2264       S  0.71539884  0.33784457  0.68036332    -0.32300
H2265       H  0.69544128  0.31943703  0.64985415     0.29100
H2266       H  0.59101517  0.30876378  0.81385013     0.29100
H2267       H  0.61000470  0.33282823  0.70542493     0.19700
H2268       H  0.70523793  0.34771757  0.75839282     0.19700
C2269       C  0.66698010  0.35767877  0.94174337    -0.06200
C2270       C  0.67014965  0.33447010  0.95644900    -0.17300
C2271       C  0.67014527  0.33237677  0.99582900     0.11000
C2272       C  0.66366175  0.35138153  0.52329260    -0.06100
C2273       C  0.66660856  0.37910374  0.00849373    -0.17300
C2274       C  0.67046746  0.38350222  0.96866298     0.11100
S2275       S  0.68339454  0.30735162  0.00634090    -0.32300
S2276       S  0.68720331  0.42608979  0.95517886    -0.32300
H2277       H  0.70533017  0.42633089  0.92003549     0.29100
H2278       H  0.69894260  0.32495615  0.53883900     0.29100
H2279       H  0.67472218  0.31878872  0.93662716     0.19700
H2280       H  0.66890906  0.39854403  0.52746045     0.19700
C2281       C  0.56320186  0.15014907  0.60760275    -0.06200
C2282       C  0.59955381  0.17572393  0.61102952    -0.17300
C2283       C  0.61681931  0.21111373  0.60682452     0.11000
C2284       C  0.59770689  0.22201095  0.59930153    -0.06100
C2285       C  0.56249118  0.19683948  0.59214399    -0.17300
C2286       C  0.54495266  0.16109719  0.59625442     0.11100
S2287       S  0.66331140  0.24136473  0.61201192    -0.32300
S2288       S  0.99849494  0.13098008  0.58959495    -0.35700
H2289       H  0.98785113  0.11422529  0.62406375     0.29100
H2290       H  0.67131565  0.26691575  0.58831610     0.29100
H2291       H  0.61479021  0.16828578  0.61797282     0.19700
H2292       H  0.54803619  0.20527565  0.58550891     0.19700
C2293       C  0.78975990  0.42567514  0.59141334    -0.06200
C2294       C  0.80211307  0.40634032  0.58108041    -0.17300
C2295       C  0.83518169  0.41889432  0.58942075     0.11000
C2296       C  0.85619119  0.45140403  0.60870042    -0.06100
C2297       C  0.84518139  0.47216305  0.61555409    -0.17300
C2298       C  0.81210884  0.45951435  0.60717251     0.11100
S2299       S  0.84862091  0.39195930  0.57560837    -0.32300
S2300       S  0.79846871  0.48638558  0.61977459    -0.32300
H2301       H  0.77184563  0.46913852  0.59546292     0.29100
H2302       H  0.88502777  0.41967268  0.57022494     0.29100
H2303       H  0.78477024  0.38025760  0.56900780     0.19700
H2304       H  0.86154005  0.49755875  0.62946726     0.19700
C2305       C  0.56869681  0.43447687  0.65589201    -0.06200
C2306       C  0.58974123  0.44088304  0.62071911    -0.17300
C2307       C  0.60852208  0.42776383  0.61165089     0.11000
C2308       C  0.60417122  0.40483657  0.63676736    -0.06100
C2309       C  0.58407156  0.39923365  0.67245310    -0.17300
C2310       C  0.56733970  0.41449221  0.68281490     0.11100
S2311       S  0.64011432  0.44442125  0.56951585    -0.32300
S2312       S  0.54638802  0.40816089  0.73124596    -0.32300
H2313       H  0.01475628  0.40052652  0.72195995     0.29100
H2314       H  0.66565323  0.44628636  0.58564272     0.29100
H2315       H  0.59298300  0.45770735  0.60045009     0.19700
H2316       H  0.58114408  0.38259072  0.69265609     0.19700
C2317       C  0.56519612  0.16028398  0.88501532    -0.06200
C2318       C  0.54430876  0.17122508  0.88847229    -0.17300
C2319       C  0.55863990  0.20461271  0.87780505     0.11000
C2320       C  0.59446370  0.22751984  0.86312349    -0.06100
C2321       C  0.61501801  0.21626931  0.85805822    -0.17300
C2322       C  0.60076787  0.18281854  0.86871405     0.11100
S2323       S  0.53059183  0.21732217  0.88502778    -0.32300
S2324       S  0.62800078  0.16909499  0.86068583    -0.32300
H2325       H  0.65756019  0.19867351  0.84092854     0.29100
H2326       H  0.55053822  0.24426750  0.85857280     0.29100
H2327       H  0.51683523  0.15390143  0.90031060     0.19700
H2328       H  0.64267488  0.23444267  0.84729542     0.19700
C2329       C  0.79323359  0.42366979  0.84078190    -0.06200
C2330       C  0.81411828  0.45787999  0.85541034    -0.17300
C2331       C  0.85009373  0.47599427  0.85801096     0.11000
C2332       C  0.86539480  0.45914735  0.84596147    -0.06100
C2333       C  0.84489102  0.42592746  0.82820054    -0.17300
C2334       C  0.80902527  0.40794801  0.82585765     0.11100
S2335       S  0.87482447  0.51917860  0.87968808    -0.32300
S2336       S  0.78421609  0.36400118  0.80647055    -0.32300
H2337       H  0.75294501  0.35065599  0.83114869     0.29100
H2338       H  0.84660853  0.52050309  0.89007824     0.29100
H2339       H  0.80157612  0.46966698  0.86631123     0.19700
H2340       H  0.85625152  0.41276068  0.81860427     0.19700
C2341       C  0.57568227  0.44241172  0.88821062    -0.06200
C2342       C  0.55957144  0.41088976  0.90611946    -0.17300
C2343       C  0.57372859  0.39317636  0.89917466     0.11000
C2344       C  0.60533628  0.40758213  0.87452434    -0.06100
C2345       C  0.62108133  0.43855605  0.85588205    -0.17300
C2346       C  0.60689442  0.45632230  0.86267317     0.11100
S2347       S  0.54932184  0.35154885  0.92114684    -0.32300
S2348       S  0.63556441  0.00141957  0.84781552    -0.32300
H2349       H  0.62851092  0.01625805  0.88056930     0.29100
H2350       H  0.55892486  0.33657878  0.89103845     0.29100
H2351       H  0.53520683  0.39944227  0.92504950     0.19700
H2352       H  0.64548108  0.44970208  0.83712791     0.19700
C2353       C  0.88220657  0.10418299  0.71555172    -0.06200
C2354       C  0.86400272  0.06963644  0.72579811    -0.17300
C2355       C  0.87964558  0.05323762  0.71729035     0.11000
C2356       C  0.91459900  0.07206069  0.69890625    -0.06100
C2357       C  0.93275946  0.10666848  0.68885938    -0.17300
C2358       C  0.91700030  0.12290421  0.69703084     0.11100
S2359       S  0.85351354  0.00818735  0.72998024    -0.32300
S2360       S  0.94315680  0.16806232  0.68490001    -0.32300
H2361       H  0.92814642  0.17723851  0.71588632     0.29100
H2362       H  0.86730543  0.49762934  0.70046518     0.29100
H2363       H  0.83719961  0.05523789  0.73980843     0.19700
H2364       H  0.96000702  0.12179450  0.67637986     0.19700
C2365       C  0.89804142  0.28936730  0.75064778    -0.06200
C2366       C  0.92566217  0.30900457  0.72167395    -0.17300
C2367       C  0.93801871  0.34224667  0.71372752     0.11000
C2368       C  0.92522085  0.35813737  0.73748355    -0.06100
C2369       C  0.89936427  0.33974606  0.76823224    -0.17300
C2370       C  0.88491106  0.30518126  0.77443759     0.11100
S2371       S  0.96630599  0.36098810  0.66980582    -0.32300
S2372       S  0.84771400  0.28189356  0.81047951    -0.32300
H2373       H  0.82702035  0.25240139  0.78691370     0.29100
H2374       H  0.94403367  0.36577068  0.65667353     0.29100
H2375       H  0.93535934  0.29696427  0.70276517     0.19700
H2376       H  0.88910425  0.35169998  0.78620509     0.19700
C2377       C  0.62961828  0.06313257  0.74694151    -0.06200
C2378       C  0.64057993  0.04234060  0.74064725    -0.17300
C2379       C  0.67497186  0.05623542  0.74541781     0.11000
C2380       C  0.69860498  0.09135095  0.75718077    -0.06100
C2381       C  0.68681684  0.11121282  0.76669735    -0.17300
C2382       C  0.65250396  0.09751129  0.76158310     0.11100
S2383       S  0.68814050  0.02893696  0.73337460    -0.32300
S2384       S  0.63846073  0.12422498  0.77295157    -0.32300
H2385       H  0.67004707  0.15393339  0.78585471     0.29100
H2386       H  0.71656130  0.04771122  0.75532530     0.29100
H2387       H  0.62306840  0.01587990  0.72951751     0.19700
H2388       H  0.70537823  0.13815087  0.77581096     0.19700
C2389       C  0.91444005  0.07224896  0.96231968    -0.06200
C2390       C  0.92976946  0.10271715  0.94239891    -0.17300
C2391       C  0.91582233  0.12071128  0.94827254     0.11000
C2392       C  0.88556322  0.10820610  0.97454759    -0.06100
C2393       C  0.87039492  0.07828314  0.99508315    -0.17300
C2394       C  0.88404582  0.05989391  0.98896282     0.11100
S2395       S  0.93831065  0.15997562  0.92206939    -0.32300
S2396       S  0.86013542  0.02005647  0.01452036    -0.32300
H2397       H  0.86100135  0.50309025  0.99149593     0.29100
H2398       H  0.92986382  0.17711718  0.95029523     0.29100
H2399       H  0.95322334  0.11302274  0.92225295     0.19700
H2400       H  0.84690159  0.06850357  0.01504134     0.19700
C2401       C  0.92131607  0.35306271  0.96822243    -0.06200
C2402       C  0.94129078  0.34111947  0.96572940    -0.17300
C2403       C  0.92553773  0.30685096  0.97483412     0.11000
C2404       C  0.88905542  0.28400048  0.98719394    -0.06100
C2405       C  0.87033797  0.29732740  0.49139946    -0.17300
C2406       C  0.88646237  0.33160663  0.48217376     0.11100
S2407       S  0.95306080  0.29349686  0.96825864    -0.32300
S2408       S  0.86033096  0.34645103  0.49298099    -0.32300
H2409       H  0.88835023  0.38058204  0.50370058     0.29100
H2410       H  0.92971358  0.26217990  0.98805095     0.29100
H2411       H  0.96917643  0.35825525  0.95539898     0.19700
H2412       H  0.84259462  0.28035506  0.50233711     0.19700
C2413       C  0.62228407  0.05131312  0.00584235    -0.06200
C2414       C  0.64374531  0.08412116  0.52421289    -0.17300
C2415       C  0.67891712  0.10014138  0.52832261     0.11000
C2416       C  0.69310315  0.08298969  0.01380669    -0.06100
C2417       C  0.67062844  0.04829152  0.00096706    -0.17300
C2418       C  0.63523700  0.03200734  0.99717079     0.11100
S2419       S  0.70481160  0.14377364  0.54844230    -0.32300
S2420       S  0.60827552  0.98777598  0.97846170    -0.32300
H2421       H  0.63486575  0.98390768  0.97017883     0.29100
H2422       H  0.73488910  0.15674823  0.52178150     0.29100
H2423       H  0.63352424  0.09841837  0.53310629     0.19700
H2424       H  0.68158095  0.03470309  0.99207150     0.19700
C2425       C  0.82725693  0.16082449  0.82683603    -0.06200
C2426       C  0.80112049  0.15976463  0.85230092    -0.17300
C2427       C  0.79873051  0.15909727  0.89247518     0.11000
C2428       C  0.82179921  0.15695010  0.90964279    -0.06100
C2429       C  0.85113911  0.16376280  0.88461008    -0.17300
C2430       C  0.85493800  0.16710053  0.84464381     0.11100
S2431       S  0.76778156  0.16514009  0.91861032    -0.32300
S2432       S  0.89808550  0.18393779  0.82026308    -0.32300
H2433       H  0.89799692  0.20060062  0.79119655     0.29100
H2434       H  0.78616344  0.18316261  0.95018513     0.29100
H2435       H  0.78355972  0.16217855  0.84105170     0.19700
H2436       H  0.87323830  0.16956673  0.89648873     0.19700
C2437       C  0.82334971  0.16002217  0.57747826    -0.06200
C2438       C  0.82541650  0.18613886  0.60166180    -0.17300
C2439       C  0.82391356  0.18650528  0.64190927     0.11000
C2440       C  0.82508560  0.16273863  0.65978741    -0.06100
C2441       C  0.81748306  0.13383230  0.63642116    -0.17300
C2442       C  0.81486375  0.13134920  0.59673910     0.11100
S2443       S  0.81374402  0.21377892  0.66762332    -0.32300
S2444       S  0.79635657  0.08955836  0.57264568    -0.32300
H2445       H  0.78847539  0.07052417  0.60454134     0.29100
H2446       H  0.79491601  0.19309075  0.69987175     0.29100
H2447       H  0.82425712  0.20449755  0.58979441     0.19700
H2448       H  0.81131789  0.11177084  0.64980585     0.19700
C2449       C  0.82405951  0.66076142  0.03409180     0.30000
C2450       C  0.82083780  0.65564230  0.45493056     0.30000
C2451       C  0.84423320  0.64904595  0.00876811    -0.06200
C2452       C  0.78734215  0.63600964  0.01988251    -0.07000
C2453       C  0.84044033  0.69528513  0.01423356    -0.06900
C2454       C  0.84098420  0.64464291  0.46886039    -0.06200
C2455       C  0.78512261  0.63240546  0.48006520    -0.07000
C2456       C  0.83826223  0.69149301  0.47463226    -0.06900
C2457       C  0.85669344  0.62975560  0.45285678    -0.32300
N2458       N  0.87011899  0.62600067  0.48044738     0.14200
C2459       C  0.86323073  0.63828428  0.01494430    -0.32300
H2460       H  0.86973179  0.63737920  0.04212401     0.16200
C2461       C  0.75005397  0.60936905  0.47435870    -0.31300
N2462       N  0.73116407  0.60052935  0.00907880     0.12900
C2463       C  0.75284925  0.61599997  0.03692778    -0.31300
C2464       C  0.85685757  0.72437626  0.46126457    -0.31600
N2465       N  0.87043840  0.74836045  0.99077331     0.13400
H2466       H  0.86108808  0.73133292  0.43199803     0.16100
C2467       C  0.86076562  0.73077819  0.02313204    -0.31600
H2468       H  0.86930905  0.74335572  0.05044143     0.16100
H2469       H  0.74417435  0.61404215  0.06719618     0.16100
H2470       H  0.85717263  0.62082900  0.42360752     0.16100
H2471       H  0.73957501  0.60141170  0.44724012     0.16100
C2472       C  0.82540226  0.66218616  0.20499357     0.30000
C2473       C  0.82546382  0.66035543  0.28358664     0.30000
C2474       C  0.83897438  0.64377447  0.21714791    -0.06200
C2475       C  0.84857841  0.69741231  0.22636921    -0.07000
C2476       C  0.78971134  0.64367660  0.22985771    -0.06900
C2477       C  0.83807623  0.64186819  0.25661963    -0.06200
C2478       C  0.84790537  0.69666907  0.26579641    -0.07000
C2479       C  0.78927525  0.64248850  0.26925185    -0.06900
C2480       C  0.85008252  0.62341253  0.26035188    -0.32300
N2481       N  0.86069497  0.61680371  0.22510917     0.14200
C2482       C  0.85392762  0.62886152  0.19867545    -0.32300
H2483       H  0.86061704  0.62773574  0.16828408     0.16200
C2484       C  0.86792701  0.73092077  0.27904581    -0.31300
N2485       N  0.88072046  0.75205436  0.24895884     0.12900
C2486       C  0.87048961  0.73178396  0.21682411    -0.31300
C2487       C  0.75404674  0.62172542  0.28422789    -0.31600
N2488       N  0.73414126  0.61133055  0.25550107     0.13400
H2489       H  0.74324865  0.61357802  0.31335869     0.16100
C2490       C  0.75547003  0.62436264  0.22234351    -0.31600
H2491       H  0.74657204  0.61985279  0.19475980     0.16100
H2492       H  0.87753007  0.74159572  0.18844838     0.16100
H2493       H  0.85211874  0.61621222  0.28665193     0.16100
H2494       H  0.87213292  0.73963773  0.30840444     0.16100
O2495       O  0.56198638  0.97739330  0.37028049    -0.75300
O2496       O  0.54215422  0.95515782  0.42948383    -0.54200
C2497       C  0.55944798  0.95987638  0.39645279     0.78400
O2498       O  0.56376388  0.61854656  0.41529847    -0.59900
O2499       O  0.51712408  0.59787570  0.38335372    -0.53000
C2500       C  0.54722523  0.62262847  0.39468724     0.70400
O2501       O  0.59140050  0.56333895  0.47567463    -0.74500
O2502       O  0.56252590  0.50651144  0.48914221    -0.55100
C2503       C  0.58955878  0.53901967  0.48916749     0.76400
O2504       O  0.53850066  0.04010577  0.31601198    -0.59600
O2505       O  0.99822210  0.54958578  0.32474176    -0.52800
C2506       C  0.00800475  0.53168136  0.31042701     0.73000
Zr2507     Zr  0.53781631  0.00689331  0.36112472     2.54700
O2508       O  0.59809596  0.54627302  0.33802336    -0.80200
O2509       O  0.03456983  0.97052733  0.30454005    -0.93600
Zr2510     Zr  0.55552783  0.57053267  0.44448629     2.64700
O2511       O  0.61776600  0.61091544  0.42031117    -0.98600
O2512       O  0.56641708  0.60833271  0.50064302    -0.80600
O2513       O  0.55394038  0.52203753  0.41981827    -0.84000
O2514       O  0.53750960  0.55239112  0.38322688    -2.18700
O2515       O  0.89801404  0.94683115  0.36935300    -0.67400
O2516       O  0.92373867  0.00383045  0.36178050    -0.52000
C2517       C  0.89811431  0.97100927  0.35901805     0.71400
O2518       O  0.94041984  0.45766804  0.01260387    -0.60300
O2519       O  0.47711595  0.94729927  0.01984209    -0.52300
C2520       C  0.96135387  0.96054211  0.03245181     0.73200
O2521       O  0.92824956  0.53712872  0.48129382    -0.71700
O2522       O  0.94825803  0.55916825  0.42202376    -0.50400
C2523       C  0.93090958  0.55473442  0.45504115     0.74600
O2524       O  0.92255281  0.89339577  0.43461066    -0.67000
O2525       O  0.97004449  0.91237635  0.46365613    -0.54200
C2526       C  0.93892951  0.88837069  0.45419575     0.72900
Zr2527     Zr  0.93373194  0.94194670  0.40327831     2.77500
O2528       O  0.87248050  0.90087394  0.43189394    -0.97800
O2529       O  0.92380562  0.90488609  0.34681518    -0.78600
Zr2530     Zr  0.95526506  0.51032497  0.49097001     2.70100
O2531       O  0.90323627  0.98636686  0.03649045    -0.79800
O2532       O  0.48396763  0.55501894  0.04070283    -0.98900
Zr2533     Zr  0.50976925  0.97513567  0.46020220     2.21500
Zr2534     Zr  0.97980788  0.53820742  0.39075234     2.11100
O2535       O  0.93432999  0.98985462  0.42960443    -2.47600
O2536       O  0.95198016  0.96146509  0.46347380    -0.79600
O2537       O  0.98068781  0.99132849  0.37382841    -0.71800
O2538       O  0.51298459  0.52382557  0.48536991    -2.32800
O2539       O  0.99081712  0.95616110  0.39735935    -2.29000
O2540       O  0.49865628  0.55648320  0.44980728    -0.73600
H2541       H  0.55432558  0.57244492  0.36725632     0.78400
H2542       H  0.52308611  0.53331430  0.01114808     0.79500
H2543       H  0.91144744  0.98449163  0.43109922     0.81700
H2544       H  0.98958744  0.93602024  0.38852194     0.79300
H2545       H  0.57162930  0.59949535  0.51968715     0.42400
H2546       H  0.49742865  0.57741011  0.02760567     0.41300
H2547       H  0.88371911  0.96705712  0.02222608     0.41000
H2548       H  0.86408163  0.91483575  0.43914158     0.38900
H2549       H  0.94751368  0.91615998  0.33265254     0.42100
H2550       H  0.02137952  0.94676898  0.31411076     0.36900
H2551       H  0.60972176  0.55537771  0.36160738     0.43000
H2552       H  0.61816353  0.61008027  0.39232877     0.39400
H2553       H  0.85912456  0.88551849  0.41053439     0.44300
H2554       H  0.56376792  0.98273749  0.29854173     0.43000
H2555       H  0.62508272  0.63435886  0.42866893     0.43200
H2556       H  0.96263189  0.55352181  0.05653879     0.43500
O2557       O  0.54400074  0.95764606  0.13319611    -0.75300
O2558       O  0.53957907  0.95560521  0.19729088    -0.54200
C2559       C  0.54960458  0.95052304  0.16330809     0.78400
O2560       O  0.56125135  0.61128857  0.14302973    -0.59900
O2561       O  0.01555822  0.58779896  0.11026140    -0.53000
C2562       C  0.54437926  0.61309520  0.12053252     0.70400
O2563       O  0.59641729  0.56836247  0.21083893    -0.74500
O2564       O  0.56689993  0.51670041  0.24071781    -0.55100
C2565       C  0.59455550  0.54797062  0.23244141     0.76400
O2566       O  0.50698179  0.00070604  0.06578359    -0.59600
O2567       O  0.96053781  0.50119087  0.07456583    -0.52800
C2568       C  0.97701217  0.48984175  0.05915049     0.73000
Zr2569     Zr  0.51469050  0.97944920  0.11570280     2.54700
O2570       O  0.56389817  0.49724855  0.06697448    -0.80200
O2571       O  0.97985045  0.92336401  0.08314250    -0.93600
Zr2572     Zr  0.55864991  0.56792338  0.17362848     2.64700
O2573       O  0.60839941  0.58771410  0.12461863    -0.98600
O2574       O  0.59494849  0.62354519  0.20761072    -0.80600
O2575       O  0.54703995  0.51286816  0.16640885    -0.84000
O2576       O  0.52803775  0.53650332  0.12098980    -2.18700
O2577       O  0.88633577  0.94079491  0.14329587    -0.67400
O2578       O  0.91424184  0.99470131  0.11969925    -0.52000
C2579       C  0.88750364  0.96246132  0.12462850     0.71400
O2580       O  0.95563964  0.48906021  0.28395942    -0.60300
O2581       O  0.49204960  0.97652911  0.28776450    -0.52300
C2582       C  0.98220504  0.99632712  0.29753708     0.73200
O2583       O  0.93546581  0.54780458  0.22486642    -0.71700
O2584       O  0.94581351  0.55597320  0.16101937    -0.50400
C2585       C  0.93242858  0.55733469  0.19484977     0.74600
O2586       O  0.91791928  0.89563846  0.21374131    -0.67000
O2587       O  0.97035180  0.91895635  0.23506950    -0.54200
C2588       C  0.93847738  0.89326807  0.22900648     0.72900
Zr2589     Zr  0.92267886  0.94086891  0.18316040     2.77500
O2590       O  0.87465190  0.92420467  0.23344340    -0.97800
O2591       O  0.88561513  0.88591528  0.14832746    -0.78600
Zr2592     Zr  0.96915539  0.53054052  0.24077715     2.70100
O2593       O  0.93680939  0.03608592  0.29587658    -0.79800
O2594       O  0.51137125  0.58650551  0.26850059    -0.98900
Zr2595     Zr  0.50855876  0.97921395  0.22053886     2.21500
Zr2596     Zr  0.97343054  0.52901612  0.13559501     2.11100
O2597       O  0.93637627  0.99716190  0.19069542    -2.47600
O2598       O  0.95580672  0.97499107  0.23326351    -0.79600
O2599       O  0.96070100  0.97286061  0.12978523    -0.71800
O2600       O  0.52245297  0.53622755  0.22834250    -2.32800
O2601       O  0.97601506  0.94718201  0.16908096    -2.29000
O2602       O  0.50556944  0.56178195  0.18643275    -0.73600
H2603       H  0.54307881  0.55167549  0.09971996     0.78400
H2604       H  0.53787410  0.55056265  0.24765145     0.79500
H2605       H  0.91437035  0.99360583  0.19403899     0.81700
H2606       H  0.97167248  0.92521499  0.16531803     0.79300
H2607       H  0.58106544  0.62012438  0.23272496     0.42400
H2608       H  0.52036646  0.60297743  0.24792018     0.41300
H2609       H  0.91187066  0.01731817  0.29160612     0.41000
H2610       H  0.85878795  0.92608735  0.22196339     0.38900
H2611       H  0.90160380  0.88039303  0.13699750     0.42100
H2612       H  0.95494130  0.91347757  0.09121925     0.36900
H2613       H  0.58456828  0.50902406  0.08117822     0.43000
H2614       H  0.62937364  0.60143984  0.13869604     0.39400
H2615       H  0.86126541  0.89882622  0.23611892     0.44300
H2616       H  0.48664816  0.90938251  0.09360831     0.43000
H2617       H  0.60579635  0.56639951  0.11568481     0.43200
H2618       H  0.99789347  0.59456659  0.28342198     0.43500
C2619       C  0.66245714  0.85055740  0.31906979     0.30000
C2620       C  0.66376492  0.85408552  0.39837324     0.30000
C2621       C  0.64868822  0.86881855  0.34372397    -0.06200
C2622       C  0.64206775  0.81581392  0.33941017    -0.07000
C2623       C  0.69917503  0.87105680  0.33324570    -0.06900
C2624       C  0.64782976  0.86918843  0.38355211    -0.06200
C2625       C  0.64207082  0.81755515  0.37910699    -0.07000
C2626       C  0.69948437  0.87238237  0.37302214    -0.06900
C2627       C  0.63036141  0.88228921  0.39927643    -0.32300
N2628       N  0.62317636  0.89214571  0.37079908     0.14200
C2629       C  0.63526354  0.88515866  0.33694873    -0.32300
H2630       H  0.63338980  0.89073683  0.30944490     0.16200
C2631       C  0.62207488  0.78385107  0.39089559    -0.31300
N2632       N  0.61138907  0.76222985  0.35993743     0.12900
C2633       C  0.62354665  0.78119841  0.32823629    -0.31300
C2634       C  0.73405194  0.89179789  0.37967265    -0.31600
N2635       N  0.75473192  0.90244115  0.34574693     0.13400
H2636       H  0.74358124  0.89778647  0.40715821     0.16100
C2637       C  0.73408626  0.89062957  0.31736562    -0.31600
H2638       H  0.74415162  0.89649247  0.28763828     0.16100
H2639       H  0.61950671  0.77062883  0.29940186     0.16100
H2640       H  0.62278405  0.88410582  0.42922478     0.16100
H2641       H  0.61608987  0.77526501  0.41973336     0.16100
C2642       C  0.65883876  0.84782525  0.06977224     0.30000
C2643       C  0.65994549  0.84682787  0.14826051     0.30000
C2644       C  0.64226235  0.86267364  0.09720716    -0.06200
C2645       C  0.63812873  0.81161350  0.08749585    -0.07000
C2646       C  0.69523135  0.86844621  0.08417323    -0.06900
C2647       C  0.64371077  0.86281416  0.13650231    -0.06200
C2648       C  0.63945181  0.81144754  0.12660076    -0.07000
C2649       C  0.69569331  0.86858260  0.12347577    -0.06900
C2650       C  0.63146041  0.88019030  0.15509241    -0.32300
N2651       N  0.62063516  0.88892147  0.12938994     0.14200
C2652       C  0.62605813  0.87729186  0.09427179    -0.32300
H2653       H  0.61825617  0.87884714  0.06847380     0.16200
C2654       C  0.62119674  0.77734889  0.13614286    -0.31300
N2655       N  0.60849157  0.75676969  0.10454940     0.12900
C2656       C  0.61736307  0.77707976  0.07518573    -0.31300
C2657       C  0.73028358  0.89217985  0.13025075    -0.31600
N2658       N  0.75080298  0.90424761  0.09651591     0.13400
H2659       H  0.74022957  0.89975933  0.15765274     0.16100
C2660       C  0.72992927  0.89013102  0.06804468    -0.31600
H2661       H  0.73931491  0.89512864  0.03803898     0.16100
H2662       H  0.61043520  0.76736667  0.04664373     0.16100
H2663       H  0.63132319  0.88693128  0.18516399     0.16100
H2664       H  0.61860347  0.76823834  0.16365952     0.16100
C2665       C  0.65987066  0.84465781  0.19226051    -0.06200
C2666       C  0.63155262  0.83873815  0.21831658    -0.17300
C2667       C  0.63002008  0.83766898  0.25829645     0.11000
C2668       C  0.65951686  0.84637962  0.27479204    -0.06100
C2669       C  0.68465632  0.84633382  0.24857527    -0.17300
C2670       C  0.68410576  0.84363347  0.20847196     0.11100
S2671       S  0.58748782  0.82099362  0.28454523    -0.32300
S2672       S  0.71201396  0.83403605  0.18136492    -0.32300
H2673       H  0.69162271  0.81605038  0.15110267     0.29100
H2674       H  0.58997216  0.80802439  0.31551270     0.29100
H2675       H  0.60893877  0.83269380  0.20730500     0.19700
H2676       H  0.70351717  0.84554305  0.25934842     0.19700
C2677       C  0.66569331  0.85518977  0.44271881    -0.06200
C2678       C  0.66823561  0.83147738  0.45739113    -0.17300
C2679       C  0.66769234  0.82888094  0.49685029     0.11000
C2680       C  0.66165585  0.85004036  0.02505629    -0.06100
C2681       C  0.66525138  0.87631327  0.50959485    -0.17300
C2682       C  0.66926204  0.88092373  0.46983179     0.11100
S2683       S  0.67912194  0.80231441  0.50744628    -0.32300
S2684       S  0.68633243  0.92373369  0.45680685    -0.32300
H2685       H  0.70453565  0.92417602  0.42163958     0.29100
H2686       H  0.69469279  0.82123436  0.04048017     0.29100
H2687       H  0.67263652  0.81569832  0.43753341     0.19700
H2688       H  0.66916503  0.89838717  0.02872181     0.19700
C2689       C  0.56078148  0.64899111  0.10841783    -0.06200
C2690       C  0.59714049  0.67495010  0.11123501    -0.17300
C2691       C  0.61365542  0.71024679  0.10761235     0.11000
C2692       C  0.59371446  0.72062576  0.10148256    -0.06100
C2693       C  0.55840076  0.69507886  0.09494183    -0.17300
C2694       C  0.54166508  0.65942894  0.09824062     0.11100
S2695       S  0.66029755  0.74106203  0.11175759    -0.32300
S2696       S  0.99744958  0.63092599  0.08962093    -0.35700
H2697       H  0.98627068  0.61389885  0.12400659     0.29100
H2698       H  0.66727088  0.76626201  0.08834153     0.29100
H2699       H  0.61293110  0.66787252  0.11732036     0.19700
H2700       H  0.54333403  0.70310736  0.08920880     0.19700
C2701       C  0.78803401  0.92274693  0.09271078    -0.06200
C2702       C  0.80059390  0.90356217  0.08288480    -0.17300
C2703       C  0.83397952  0.91670597  0.09080543     0.11000
C2704       C  0.85518557  0.94974310  0.10909270    -0.06100
C2705       C  0.84385746  0.97022943  0.11549311    -0.17300
C2706       C  0.81040509  0.95693519  0.10768357     0.11100
S2707       S  0.84749390  0.88974411  0.07793016    -0.32300
S2708       S  0.79641824  0.98352700  0.12017636    -0.32300
H2709       H  0.76886236  0.96529565  0.09702605     0.29100
H2710       H  0.88376221  0.91761238  0.07111570     0.29100
H2711       H  0.78322078  0.87720255  0.07149771     0.19700
H2712       H  0.86024274  0.99592099  0.12877676     0.19700
C2713       C  0.56920717  0.93588599  0.15732922    -0.06200
C2714       C  0.59138236  0.94323774  0.12284303    -0.17300
C2715       C  0.61008063  0.92996969  0.11400572     0.11000
C2716       C  0.60495097  0.90639515  0.13881904    -0.06100
C2717       C  0.58396838  0.90009487  0.17400834    -0.17300
C2718       C  0.56682992  0.91501291  0.18396311     0.11100
S2719       S  0.64213014  0.94672663  0.07223633    -0.32300
S2720       S  0.54333677  0.90644943  0.23132710    -0.32300
H2721       H  0.01389435  0.89974861  0.21915742     0.29100
H2722       H  0.66705846  0.94757931  0.08835711     0.29100
H2723       H  0.59527297  0.96062504  0.10284750     0.19700
H2724       H  0.58036064  0.88286115  0.19393921     0.19700
C2725       C  0.56394224  0.65817971  0.38257489    -0.06200
C2726       C  0.54295410  0.66887423  0.38430529    -0.17300
C2727       C  0.55766730  0.70241507  0.37373822     0.11000
C2728       C  0.59397582  0.72581556  0.36145279    -0.06100
C2729       C  0.61463051  0.71478284  0.35774757    -0.17300
C2730       C  0.59996125  0.68108182  0.36783412     0.11100
S2731       S  0.52954133  0.71484103  0.37793229    -0.32300
S2732       S  0.62726949  0.66751239  0.36088653    -0.32300
H2733       H  0.65793481  0.69807037  0.34374534     0.29100
H2734       H  0.54977744  0.74040023  0.34987754     0.29100
H2735       H  0.51511619  0.65126708  0.39467442     0.19700
H2736       H  0.64259088  0.73325840  0.34842384     0.19700
C2737       C  0.79239340  0.92266033  0.34136441    -0.06200
C2738       C  0.81251804  0.95618429  0.35787666    -0.17300
C2739       C  0.84857048  0.97473419  0.36035362     0.11000
C2740       C  0.86480542  0.95912296  0.34612063    -0.06100
C2741       C  0.84512849  0.92679573  0.32650086    -0.17300
C2742       C  0.80911860  0.90826974  0.32440733     0.11100
S2743       S  0.87196665  0.01634617  0.38541366    -0.32300
S2744       S  0.78532810  0.86508346  0.30308746    -0.32300
H2745       H  0.75418195  0.85028164  0.32842200     0.29100
H2746       H  0.84533396  0.02008641  0.38945241     0.29100
H2747       H  0.79927007  0.96688493  0.37066538     0.19700
H2748       H  0.85722621  0.91455933  0.31540538     0.19700
C2749       C  0.57639958  0.94287036  0.38819850    -0.06200
C2750       C  0.55989634  0.91113560  0.40591679    -0.17300
C2751       C  0.57403670  0.89336827  0.39951140     0.11000
C2752       C  0.60601409  0.90784501  0.37554356    -0.06100
C2753       C  0.62211668  0.93897517  0.35696207    -0.17300
C2754       C  0.60797017  0.95683551  0.36327641     0.11100
S2755       S  0.54919879  0.85162198  0.42135804    -0.32300
S2756       S  0.63483452  0.50052003  0.34490242    -0.32300
H2757       H  0.62744715  0.51521413  0.37753464     0.29100
H2758       H  0.55907677  0.83670587  0.39149509     0.29100
H2759       H  0.53530296  0.89962967  0.42443020     0.19700
H2760       H  0.64671080  0.95013124  0.33858163     0.19700
C2761       C  0.87867865  0.60192492  0.21706247    -0.06200
C2762       C  0.86176800  0.56811636  0.22895645    -0.17300
C2763       C  0.87797633  0.55225624  0.22038348     0.11000
C2764       C  0.91227110  0.57088635  0.20018756    -0.06100
C2765       C  0.92908478  0.60470950  0.18835403    -0.17300
C2766       C  0.91280689  0.62044637  0.19670645     0.11100
S2767       S  0.85329430  0.50802228  0.23529856    -0.32300
S2768       S  0.93774711  0.66495148  0.18266627    -0.32300
H2769       H  0.92396267  0.67489846  0.21423960     0.29100
H2770       H  0.86894718  0.99962771  0.19790145     0.29100
H2771       H  0.83546437  0.55379975  0.24429842     0.19700
H2772       H  0.95585245  0.61979273  0.17442956     0.19700
C2773       C  0.89865316  0.78908115  0.24914880    -0.06200
C2774       C  0.92502577  0.80837950  0.21899471    -0.17300
C2775       C  0.93737048  0.84175854  0.21157855     0.11000
C2776       C  0.92579035  0.85808994  0.23671780    -0.06100
C2777       C  0.90102463  0.83994720  0.26827421    -0.17300
C2778       C  0.88657049  0.80531371  0.27416862     0.11100
S2779       S  0.96450386  0.86047937  0.16708961    -0.32300
S2780       S  0.85055012  0.78255117  0.31153025    -0.32300
H2781       H  0.82875612  0.75313869  0.28836245     0.29100
H2782       H  0.94175415  0.86537385  0.15550178     0.29100
H2783       H  0.93405202  0.79618748  0.19918737     0.19700
H2784       H  0.89152984  0.85215782  0.28721673     0.19700
C2785       C  0.62744398  0.56142149  0.24713540    -0.06200
C2786       C  0.64033657  0.54236193  0.23908396    -0.17300
C2787       C  0.67487921  0.55742184  0.24485102     0.11000
C2788       C  0.69674506  0.59196153  0.25907237    -0.06100
C2789       C  0.68292834  0.60986121  0.27025077    -0.17300
C2790       C  0.64844189  0.59497075  0.26426938     0.11100
S2791       S  0.69075174  0.53256497  0.23117849    -0.32300
S2792       S  0.63174918  0.61922460  0.27744298    -0.32300
H2793       H  0.66150205  0.64813631  0.29398636     0.29100
H2794       H  0.71714766  0.55032802  0.25580995     0.29100
H2795       H  0.62423877  0.51650508  0.22607114     0.19700
H2796       H  0.70011857  0.63639672  0.28115118     0.19700
C2797       C  0.91414958  0.57225019  0.46294343    -0.06200
C2798       C  0.92797196  0.60106716  0.44071069    -0.17300
C2799       C  0.91461648  0.61960008  0.44661372     0.11000
C2800       C  0.88645940  0.60939603  0.47536937    -0.06100
C2801       C  0.87274082  0.58105170  0.49804280    -0.17300
C2802       C  0.88566981  0.56199403  0.49177383     0.11100
S2803       S  0.93532799  0.65667950  0.41720676    -0.32300
S2804       S  0.86293968  0.52374037  0.51984588    -0.32300
H2805       H  0.86040285  0.00140676  0.48726729     0.29100
H2806       H  0.93010375  0.67626665  0.44531422     0.29100
H2807       H  0.94988299  0.60975242  0.41868059     0.19700
H2808       H  0.85064949  0.57276250  0.51969960     0.19700
C2809       C  0.92092741  0.85259422  0.46699065    -0.06200
C2810       C  0.94077392  0.84061945  0.46551628    -0.17300
C2811       C  0.92482986  0.80655240  0.47560800     0.11000
C2812       C  0.88828549  0.78384461  0.48758620    -0.06100
C2813       C  0.86999470  0.79764547  0.99201822    -0.17300
C2814       C  0.88594712  0.83186833  0.98273441     0.11100
S2815       S  0.95200395  0.79294273  0.47071775    -0.32300
S2816       S  0.85901206  0.84585216  0.99170703    -0.32300
H2817       H  0.88627278  0.88008758  0.00305518     0.29100
H2818       H  0.93052994  0.76572301  0.49672237     0.29100
H2819       H  0.96873135  0.85760592  0.45546179     0.19700
H2820       H  0.84207725  0.78034381  0.00215698     0.19700
C2821       C  0.62203453  0.54995452  0.50368798    -0.06200
C2822       C  0.64446656  0.58415190  0.02223052    -0.17300
C2823       C  0.67956229  0.60006706  0.02659339     0.11000
C2824       C  0.69259378  0.58155474  0.51342445    -0.06100
C2825       C  0.67047963  0.54711206  0.49964599    -0.17300
C2826       C  0.63524959  0.53088230  0.49499063     0.11100
S2827       S  0.70584714  0.64417270  0.04536528    -0.32300
S2828       S  0.60920688  0.48734746  0.47436652    -0.32300
H2829       H  0.63241903  0.48009065  0.47724203     0.29100
H2830       H  0.73569320  0.65645066  0.01854483     0.29100
H2831       H  0.63452969  0.59878210  0.03031825     0.19700
H2832       H  0.68168904  0.53380771  0.49032557     0.19700
C2833       C  0.82624134  0.66106497  0.32796129    -0.06200
C2834       C  0.80081066  0.66090752  0.35380823    -0.17300
C2835       C  0.79867201  0.66013996  0.39394437     0.11000
C2836       C  0.82134850  0.65709608  0.41063008    -0.06100
C2837       C  0.85009450  0.66301349  0.38519682    -0.17300
C2838       C  0.85364047  0.66635916  0.34529801     0.11100
S2839       S  0.76818048  0.66666544  0.42059092    -0.32300
S2840       S  0.89625100  0.68183895  0.32039976    -0.32300
H2841       H  0.89648881  0.69826954  0.29083461     0.29100
H2842       H  0.78526439  0.68255486  0.45329141     0.29100
H2843       H  0.78356518  0.66394617  0.34289958     0.19700
H2844       H  0.87210141  0.66828183  0.39665539     0.19700
C2845       C  0.82284234  0.66025776  0.07866677    -0.06200
C2846       C  0.82497101  0.68636378  0.10290709    -0.17300
C2847       C  0.82288440  0.68635014  0.14316439     0.11000
C2848       C  0.82320246  0.66201155  0.16105275    -0.06100
C2849       C  0.81555098  0.63316918  0.13755104    -0.17300
C2850       C  0.81391916  0.63128963  0.09771509     0.11100
S2851       S  0.81358280  0.71436897  0.16870380    -0.32300
S2852       S  0.79610871  0.58985675  0.07302350    -0.32300
H2853       H  0.79381099  0.57221627  0.10309251     0.29100
H2854       H  0.79555535  0.69479673  0.20176350     0.29100
H2855       H  0.82436073  0.70508505  0.09102891     0.19700
H2856       H  0.80847692  0.61068187  0.15090089     0.19700
C2857       C  0.82290651  0.65941013  0.53387188     0.30000
C2858       C  0.82187835  0.65657720  0.95510698     0.30000
C2859       C  0.84292196  0.64757669  0.50837504    -0.06200
C2860       C  0.78617676  0.63489222  0.51961816    -0.07000
C2861       C  0.83954023  0.69408422  0.51418311    -0.06900
C2862       C  0.84239232  0.64604517  0.96921591    -0.06200
C2863       C  0.78624350  0.63317741  0.98033416    -0.07000
C2864       C  0.83900731  0.69250825  0.97467490    -0.06900
C2865       C  0.85816429  0.63116148  0.95344143    -0.32300
N2866       N  0.87128869  0.62722189  0.98124692     0.14200
C2867       C  0.86221580  0.63707119  0.51424046    -0.32300
H2868       H  0.86907525  0.63637741  0.54127605     0.16200
C2869       C  0.75117523  0.60976623  0.97470141    -0.31300
N2870       N  0.73002203  0.59975418  0.50873140     0.12900
C2871       C  0.75166573  0.61481716  0.53660908    -0.31300
C2872       C  0.85748369  0.72537545  0.96122088    -0.31600
N2873       N  0.86967354  0.74724985  0.49088953     0.13400
H2874       H  0.86165964  0.73224488  0.93193027     0.16100
C2875       C  0.85974748  0.72954497  0.52325108    -0.31600
H2876       H  0.86788606  0.74196545  0.55072610     0.16100
H2877       H  0.74295927  0.61255701  0.56687967     0.16100
H2878       H  0.85881760  0.62230082  0.92419303     0.16100
H2879       H  0.74065496  0.60134380  0.94758863     0.16100
C2880       C  0.82482711  0.66124698  0.70485654     0.30000
C2881       C  0.82526848  0.65956725  0.78346113     0.30000
C2882       C  0.83983202  0.64410293  0.71683270    -0.06200
C2883       C  0.84689914  0.69657557  0.72650936    -0.07000
C2884       C  0.78906367  0.64148731  0.72971499    -0.06900
C2885       C  0.83916989  0.64230904  0.75629489    -0.06200
C2886       C  0.84635227  0.69578855  0.76593855    -0.07000
C2887       C  0.78885308  0.64038276  0.76908578    -0.06900
C2888       C  0.85129043  0.62392307  0.75991848    -0.32300
N2889       N  0.86156153  0.61705777  0.72462166     0.14200
C2890       C  0.85468709  0.62909562  0.69826391    -0.32300
H2891       H  0.86095564  0.62761080  0.66784009     0.16200
C2892       C  0.86575205  0.72994071  0.77946306    -0.31300
N2893       N  0.87833428  0.75111767  0.74952862     0.12900
C2894       C  0.86823241  0.73105392  0.71723727    -0.31300
C2895       C  0.75371260  0.61915346  0.78420638    -0.31600
N2896       N  0.73358874  0.60840066  0.75562198     0.13400
H2897       H  0.74313127  0.61123340  0.81342565     0.16100
C2898       C  0.75471473  0.62165104  0.72238027    -0.31600
H2899       H  0.74562771  0.61728649  0.69494847     0.16100
H2900       H  0.87536979  0.74111218  0.68896269     0.16100
H2901       H  0.85329785  0.61663896  0.78618053     0.16100
H2902       H  0.87003957  0.73863283  0.80882368     0.16100
O2903       O  0.56189218  0.97732177  0.87168328    -0.75300
O2904       O  0.54208147  0.95544907  0.93108596    -0.54200
C2905       C  0.55948392  0.96012262  0.89816312     0.78400
O2906       O  0.56573443  0.62001138  0.91557999    -0.59900
O2907       O  0.51932922  0.59920110  0.88309724    -0.53000
C2908       C  0.54940146  0.62397328  0.89452147     0.70400
O2909       O  0.59211770  0.56468073  0.97749494    -0.74500
O2910       O  0.56341231  0.50775677  0.99042568    -0.55100
C2911       C  0.59043219  0.54027172  0.99054443     0.76400
O2912       O  0.53878842  0.04001227  0.81654442    -0.59600
O2913       O  0.00076077  0.55025652  0.82445052    -0.52800
C2914       C  0.00951136  0.53151232  0.81002450     0.73000
Zr2915     Zr  0.53741333  0.00641710  0.86182337     2.54700
O2916       O  0.59928199  0.54922545  0.84275759    -0.80200
O2917       O  0.03578874  0.97189890  0.80491357    -0.93600
Zr2918     Zr  0.55631805  0.57192865  0.94599751     2.64700
O2919       O  0.61882330  0.61220796  0.92273367    -0.98600
O2920       O  0.56596346  0.61006777  0.00152651    -0.80600
O2921       O  0.55461035  0.52334941  0.92158279    -0.84000
O2922       O  0.53851243  0.55378828  0.88455525    -2.18700
O2923       O  0.89937954  0.94816998  0.86909514    -0.67400
O2924       O  0.92461284  0.00523288  0.86311046    -0.52000
C2925       C  0.89923031  0.97240221  0.85942208     0.71400
O2926       O  0.94122470  0.45714746  0.51131087    -0.60300
O2927       O  0.47843787  0.94850666  0.51997150    -0.52300
C2928       C  0.96052085  0.95915157  0.53186356     0.73200
O2929       O  0.92713275  0.53620619  0.98057458    -0.71700
O2930       O  0.94812004  0.55896087  0.92163227    -0.50400
C2931       C  0.93037459  0.55427907  0.95452319     0.74600
O2932       O  0.92321773  0.89476169  0.93578814    -0.67000
O2933       O  0.97114093  0.91354961  0.96387822    -0.54200
C2934       C  0.93984462  0.88965693  0.95485322     0.72900
Zr2935     Zr  0.93461888  0.94328830  0.90406221     2.77500
O2936       O  0.87345638  0.90362828  0.93359825    -0.97800
O2937       O  0.92500779  0.90546875  0.84840668    -0.78600
Zr2938     Zr  0.95504634  0.51069227  0.99087626     2.70100
O2939       O  0.90247738  0.98600772  0.53619252    -0.79800
O2940       O  0.48395259  0.55382318  0.53942017    -0.98900
Zr2941     Zr  0.50942887  0.97532962  0.96096864     2.21500
Zr2942     Zr  0.97958350  0.53766715  0.89007465     2.11100
O2943       O  0.93547943  0.99137594  0.93019932    -2.47600
O2944       O  0.95322262  0.96287235  0.96404356    -0.79600
O2945       O  0.98161752  0.99258115  0.87450437    -0.71800
O2946       O  0.51358786  0.52529440  0.98698581    -2.32800
O2947       O  0.99163954  0.95735441  0.89811288    -2.29000
O2948       O  0.49948497  0.55796995  0.95042216    -0.73600
H2949       H  0.55547919  0.57367649  0.86844366     0.78400
H2950       H  0.52267749  0.53191313  0.50939684     0.79500
H2951       H  0.91264942  0.98606096  0.93163776     0.81700
H2952       H  0.99029835  0.93715774  0.88925264     0.79300
H2953       H  0.56497042  0.59821914  0.02283209     0.42400
H2954       H  0.49899717  0.57606865  0.52575931     0.41300
H2955       H  0.88247632  0.96979131  0.52098335     0.41000
H2956       H  0.86718767  0.91882329  0.94477587     0.38900
H2957       H  0.94862471  0.91730287  0.83369070     0.42100
H2958       H  0.02199432  0.94793749  0.81418001     0.36900
H2959       H  0.61056117  0.55350412  0.86572684     0.43000
H2960       H  0.61960625  0.61159667  0.89470329     0.39400
H2961       H  0.85901368  0.89099442  0.91216525     0.44300
H2962       H  0.56293138  0.98208282  0.79906205     0.43000
H2963       H  0.62620371  0.63566280  0.93116343     0.43200
H2964       H  0.96020622  0.55048868  0.55829427     0.43500
O2965       O  0.54593730  0.95940902  0.63204093    -0.75300
O2966       O  0.54159299  0.95714296  0.69608134    -0.54200
C2967       C  0.55147987  0.95204095  0.66198743     0.78400
O2968       O  0.56209763  0.60989721  0.64193999    -0.59900
O2969       O  0.01693976  0.58764560  0.60925514    -0.53000
C2970       C  0.54518510  0.61188946  0.61971304     0.70400
O2971       O  0.59683868  0.56739322  0.71171401    -0.74500
O2972       O  0.56695749  0.51540145  0.74096065    -0.55100
C2973       C  0.59461526  0.54673415  0.73329540     0.76400
O2974       O  0.50786683  0.00218104  0.56608474    -0.59600
O2975       O  0.96025822  0.49855354  0.57539709    -0.52800
C2976       C  0.97735744  0.48822848  0.55855809     0.73000
Zr2977     Zr  0.51619004  0.98100259  0.61557164     2.54700
O2978       O  0.56219865  0.49212752  0.56535332    -0.80200
O2979       O  0.97979236  0.92246014  0.58422153    -0.93600
Zr2980     Zr  0.55966409  0.56698977  0.67324639     2.64700
O2981       O  0.61146947  0.58844209  0.62674726    -0.98600
O2982       O  0.59396544  0.62245428  0.70804310    -0.80600
O2983       O  0.54756969  0.51172017  0.66576038    -0.84000
O2984       O  0.52878145  0.53542486  0.62062118    -2.18700
O2985       O  0.88654281  0.94013935  0.64251380    -0.67400
O2986       O  0.91453430  0.99398636  0.61856142    -0.52000
C2987       C  0.88773755  0.96178020  0.62370356     0.71400
O2988       O  0.95653474  0.48996442  0.78422521    -0.60300
O2989       O  0.49249699  0.97681090  0.78761851    -0.52300
C2990       C  0.98211833  0.99603192  0.79735196     0.73200
O2991       O  0.93650348  0.54831780  0.72477527    -0.71700
O2992       O  0.94602821  0.55546110  0.66072570    -0.50400
C2993       C  0.93296473  0.55723010  0.69459785     0.74600
O2994       O  0.91888507  0.89525812  0.71325794    -0.67000
O2995       O  0.97119392  0.91882092  0.73514891    -0.54200
C2996       C  0.93941166  0.89302857  0.72889421     0.72900
Zr2997     Zr  0.92296216  0.94010207  0.68244836     2.77500
O2998       O  0.87476450  0.92289819  0.73270276    -0.97800
O2999       O  0.88627067  0.88497923  0.64773185    -0.78600
Zr3000     Zr  0.97088432  0.53176008  0.74069847     2.70100
O3001       O  0.93566761  0.03409048  0.79524266    -0.79800
O3002       O  0.51357909  0.58634575  0.76661762    -0.98900
Zr3003     Zr  0.51050506  0.98063224  0.72055482     2.21500
Zr3004     Zr  0.97432462  0.52915172  0.63526616     2.11100
O3005       O  0.93632146  0.99626281  0.68974088    -2.47600
O3006       O  0.95584552  0.97410556  0.73280113    -0.79600
O3007       O  0.96122212  0.97254388  0.62937988    -0.71800
O3008       O  0.52332707  0.53552978  0.72793132    -2.32800
O3009       O  0.97654522  0.94686171  0.66893102    -2.29000
O3010       O  0.50663942  0.56098678  0.68547325    -0.73600
H3011       H  0.54382990  0.55054325  0.59929581     0.78400
H3012       H  0.53856482  0.54965068  0.74753562     0.79500
H3013       H  0.91425611  0.99255968  0.69293662     0.81700
H3014       H  0.97234719  0.92488614  0.66520429     0.79300
H3015       H  0.58346873  0.61681565  0.73492187     0.42400
H3016       H  0.52375018  0.60254746  0.74535897     0.41300
H3017       H  0.91083710  0.01569692  0.79040127     0.41000
H3018       H  0.88250297  0.94490972  0.74664111     0.38900
H3019       H  0.89666053  0.89041972  0.62077436     0.42100
H3020       H  0.95518568  0.91100187  0.59599246     0.36900
H3021       H  0.58392635  0.50743296  0.57813384     0.43000
H3022       H  0.60588830  0.56746660  0.61200738     0.39400
H3023       H  0.85523219  0.91653405  0.71923540     0.44300
H3024       H  0.48863822  0.91108622  0.59331047     0.43000
H3025       H  0.61102211  0.60187968  0.60860703     0.43200
H3026       H  0.00222861  0.59433320  0.78712623     0.43500
C3027       C  0.66304043  0.85150361  0.81925087     0.30000
C3028       C  0.66456492  0.85527310  0.89853226     0.30000
C3029       C  0.64889993  0.86944313  0.84400653    -0.06200
C3030       C  0.64298053  0.81683306  0.83967237    -0.07000
C3031       C  0.69990483  0.87242267  0.83333085    -0.06900
C3032       C  0.64814944  0.86984765  0.88382159    -0.06200
C3033       C  0.64303538  0.81869812  0.87936104    -0.07000
C3034       C  0.70034626  0.87391884  0.87310013    -0.06900
C3035       C  0.63033705  0.88250692  0.89979033    -0.32300
N3036       N  0.62296692  0.89227563  0.87145337     0.14200
C3037       C  0.63513857  0.88553620  0.83747694    -0.32300
H3038       H  0.63323077  0.89125055  0.81007998     0.16200
C3039       C  0.62266414  0.78501220  0.89136890    -0.31300
N3040       N  0.61185844  0.76326462  0.86053795     0.12900
C3041       C  0.62420699  0.78214168  0.82870885    -0.31300
C3042       C  0.73504567  0.89371622  0.87962473    -0.31600
N3043       N  0.75569966  0.90440823  0.84564953     0.13400
H3044       H  0.74465280  0.89981001  0.90707918     0.16100
C3045       C  0.73483968  0.89215122  0.81733668    -0.31600
H3046       H  0.74471558  0.89765587  0.78751926     0.16100
H3047       H  0.62016471  0.77146248  0.79991645     0.16100
H3048       H  0.62281082  0.88424899  0.92978747     0.16100
H3049       H  0.61654278  0.77649288  0.92026315     0.16100
C3050       C  0.65869728  0.84650662  0.56951186     0.30000
C3051       C  0.65976507  0.84613452  0.64816329     0.30000
C3052       C  0.64152277  0.86092381  0.59661618    -0.06200
C3053       C  0.63854396  0.81048090  0.58745969    -0.07000
C3054       C  0.69510649  0.86771900  0.58406832    -0.06900
C3055       C  0.64304860  0.86152044  0.63594770    -0.06200
C3056       C  0.63975142  0.81059920  0.62668458    -0.07000
C3057       C  0.69553707  0.86809085  0.62342264    -0.06900
C3058       C  0.63088456  0.87916125  0.65398154    -0.32300
N3059       N  0.61985034  0.88743645  0.62797173     0.14200
C3060       C  0.62506557  0.87521092  0.59318687    -0.32300
H3061       H  0.61700626  0.87615447  0.56724805     0.16200
C3062       C  0.62198414  0.77660777  0.63641511    -0.31300
N3063       N  0.60972197  0.75587466  0.60481970     0.12900
C3064       C  0.61843027  0.77592865  0.57525522    -0.31300
C3065       C  0.73014442  0.89155437  0.63019077    -0.31600
N3066       N  0.75069722  0.90351759  0.59643752     0.13400
H3067       H  0.74006324  0.89908548  0.65760466     0.16100
C3068       C  0.72982134  0.88931363  0.56795099    -0.31600
H3069       H  0.73921844  0.89410109  0.53792276     0.16100
H3070       H  0.61166723  0.76602790  0.54670624     0.16100
H3071       H  0.63115421  0.88655682  0.68387606     0.16100
H3072       H  0.61932967  0.76769700  0.66409144     0.16100
C3073       C  0.65985784  0.84444643  0.69228815    -0.06200
C3074       C  0.63191067  0.83927737  0.71841174    -0.17300
C3075       C  0.63051328  0.83849607  0.75842762     0.11000
C3076       C  0.65996032  0.84709949  0.77493967    -0.06100
C3077       C  0.68478008  0.84649526  0.74876500    -0.17300
C3078       C  0.68393025  0.84324873  0.70864908     0.11100
S3079       S  0.58802415  0.82185516  0.78471180    -0.32300
S3080       S  0.71147066  0.83309302  0.68178447    -0.32300
H3081       H  0.69143743  0.81544282  0.65124048     0.29100
H3082       H  0.59040651  0.80820171  0.81509023     0.29100
H3083       H  0.60931342  0.83331201  0.70746149     0.19700
H3084       H  0.70368302  0.84582226  0.75965222     0.19700
C3085       C  0.66635873  0.85650823  0.94290362    -0.06200
C3086       C  0.66829650  0.83250325  0.95783428    -0.17300
C3087       C  0.66746099  0.82987339  0.99730884     0.11000
C3088       C  0.66149318  0.84867425  0.52477383    -0.06100
C3089       C  0.66587474  0.87788646  0.00968591    -0.17300
C3090       C  0.67017829  0.88247268  0.96982296     0.11100
S3091       S  0.67794608  0.80259225  0.00813120    -0.32300
S3092       S  0.68750573  0.92527914  0.95637735    -0.32300
H3093       H  0.70534981  0.92538612  0.92108700     0.29100
H3094       H  0.69506613  0.82059637  0.54031034     0.29100
H3095       H  0.67257213  0.81655213  0.93815813     0.19700
H3096       H  0.66852252  0.89676090  0.52870525     0.19700
C3097       C  0.56176328  0.64790232  0.60787157    -0.06200
C3098       C  0.59804939  0.67378889  0.61123629    -0.17300
C3099       C  0.61465251  0.70916315  0.60807315     0.11000
C3100       C  0.59480900  0.71969046  0.60205672    -0.06100
C3101       C  0.55960802  0.69426066  0.59503668    -0.17300
C3102       C  0.54288000  0.65854144  0.59755233     0.11100
S3103       S  0.66131595  0.73975143  0.61221794    -0.32300
S3104       S  0.99752938  0.63123053  0.59487806    -0.35700
H3105       H  0.98907999  0.61466028  0.62886252     0.29100
H3106       H  0.66846328  0.76561039  0.58979380     0.29100
H3107       H  0.61374662  0.66657239  0.61723856     0.19700
H3108       H  0.54470282  0.70240864  0.58909488     0.19700
C3109       C  0.78799927  0.92227019  0.59264486    -0.06200
C3110       C  0.80102395  0.90363292  0.58128929    -0.17300
C3111       C  0.83449032  0.91673773  0.58895319     0.11000
C3112       C  0.85532219  0.94919975  0.60845544    -0.06100
C3113       C  0.84355889  0.96927725  0.61632561    -0.17300
C3114       C  0.81003097  0.95600116  0.60882578     0.11100
S3115       S  0.84853255  0.89041381  0.57414856    -0.32300
S3116       S  0.79544448  0.98190763  0.62318052    -0.32300
H3117       H  0.76905505  0.96507770  0.59861927     0.29100
H3118       H  0.88483182  0.91846221  0.56924102     0.29100
H3119       H  0.78394242  0.87763132  0.56893220     0.19700
H3120       H  0.85968565  0.99459022  0.63045714     0.19700
C3121       C  0.57044593  0.93665911  0.65565633    -0.06200
C3122       C  0.59091421  0.94204041  0.62024234    -0.17300
C3123       C  0.60887690  0.92796485  0.61123066     0.11000
C3124       C  0.60449726  0.90531842  0.63689279    -0.06100
C3125       C  0.58490963  0.90070770  0.67272464    -0.17300
C3126       C  0.56882737  0.91667116  0.68281580     0.11100
S3127       S  0.63935370  0.94289726  0.56818393    -0.32300
S3128       S  0.54807891  0.91101070  0.73124998    -0.32300
H3129       H  0.01746544  0.90225306  0.72504939     0.29100
H3130       H  0.66510160  0.94480460  0.58387812     0.29100
H3131       H  0.59419287  0.95862766  0.59961403     0.19700
H3132       H  0.58177659  0.88419333  0.69327277     0.19700
C3133       C  0.56591920  0.65945078  0.88250802    -0.06200
C3134       C  0.54443871  0.66954121  0.88415579    -0.17300
C3135       C  0.55864166  0.70307010  0.87430697     0.11000
C3136       C  0.59496018  0.72698205  0.86220742    -0.06100
C3137       C  0.61619412  0.71660299  0.85872607    -0.17300
C3138       C  0.60210741  0.68304185  0.86868497     0.11100
S3139       S  0.52967316  0.71458448  0.87960270    -0.32300
S3140       S  0.63038739  0.67061307  0.86276507    -0.32300
H3141       H  0.66201055  0.70311353  0.85087454     0.29100
H3142       H  0.55063962  0.74267705  0.85462660     0.29100
H3143       H  0.51656358  0.65150009  0.89424705     0.19700
H3144       H  0.64413969  0.73549784  0.84963750     0.19700
C3145       C  0.79343168  0.92443210  0.84112719    -0.06200
C3146       C  0.81410841  0.95850034  0.85633720    -0.17300
C3147       C  0.85028494  0.97699324  0.85854077     0.11000
C3148       C  0.86590182  0.96047633  0.84613078    -0.06100
C3149       C  0.84569180  0.92760204  0.82759658    -0.17300
C3150       C  0.80978574  0.90945830  0.82511070     0.11100
S3151       S  0.87496092  0.02029722  0.87993728    -0.32300
S3152       S  0.78567625  0.86619446  0.80397341    -0.32300
H3153       H  0.75456384  0.85169999  0.82928940     0.29100
H3154       H  0.84769860  0.02321834  0.88579791     0.29100
H3155       H  0.80130701  0.96990625  0.86792414     0.19700
H3156       H  0.85732896  0.91478434  0.81738585     0.19700
C3157       C  0.57666835  0.94337745  0.89029586    -0.06200
C3158       C  0.55919359  0.91065262  0.90615558    -0.17300
C3159       C  0.57325520  0.89279486  0.89920199     0.11000
C3160       C  0.60601373  0.90815787  0.87658235    -0.06100
C3161       C  0.62330513  0.94050148  0.86021316    -0.17300
C3162       C  0.60931621  0.95849253  0.86718186     0.11100
S3163       S  0.54748719  0.84990517  0.91854974    -0.32300
S3164       S  0.63119277  0.49750578  0.83973484    -0.32300
H3165       H  0.62793242  0.51474772  0.87266945     0.29100
H3166       H  0.55904631  0.83643397  0.88871580     0.29100
H3167       H  0.53388718  0.89844038  0.92340806     0.19700
H3168       H  0.64864909  0.95241943  0.84315613     0.19700
C3169       C  0.87924289  0.60186250  0.71642933    -0.06200
C3170       C  0.86181160  0.56761227  0.72732021    -0.17300
C3171       C  0.87798939  0.55167860  0.71870494     0.11000
C3172       C  0.91276651  0.57073119  0.69973360    -0.06100
C3173       C  0.93000843  0.60492224  0.68891832    -0.17300
C3174       C  0.91371249  0.62062092  0.69698151     0.11100
S3175       S  0.85279252  0.50688927  0.73190057    -0.32300
S3176       S  0.93896848  0.66529815  0.68345788    -0.32300
H3177       H  0.92463377  0.67496698  0.71468536     0.29100
H3178       H  0.86846490  0.99884420  0.69920104     0.29100
H3179       H  0.83520093  0.55306657  0.74189204     0.19700
H3180       H  0.95707843  0.62031416  0.67599445     0.19700
C3181       C  0.89713313  0.78826561  0.75009954    -0.06200
C3182       C  0.92552436  0.80782246  0.72178824    -0.17300
C3183       C  0.93938387  0.84174593  0.71439008     0.11000
C3184       C  0.92651284  0.85791071  0.73746291    -0.06100
C3185       C  0.89972330  0.83939141  0.76748043    -0.17300
C3186       C  0.88437489  0.80454030  0.77354682     0.11100
S3187       S  0.97012494  0.86129475  0.67209927    -0.32300
S3188       S  0.84662243  0.78155279  0.80901884    -0.32300
H3189       H  0.82617589  0.75192793  0.78552531     0.29100
H3190       H  0.94935519  0.86696117  0.65692784     0.29100
H3191       H  0.93507748  0.79547113  0.70327195     0.19700
H3192       H  0.88943798  0.85152629  0.78496173     0.19700
C3193       C  0.62709105  0.55958176  0.74839814    -0.06200
C3194       C  0.63955905  0.54016968  0.73994827    -0.17300
C3195       C  0.67409085  0.55486041  0.74512987     0.11000
C3196       C  0.69623441  0.58926713  0.75962942    -0.06100
C3197       C  0.68267597  0.60733275  0.77167973    -0.17300
C3198       C  0.64823770  0.59286317  0.76600692     0.11100
S3199       S  0.68956340  0.52980736  0.72983546    -0.32300
S3200       S  0.63171635  0.61717742  0.78032804    -0.32300
H3201       H  0.66233804  0.64668776  0.79502348     0.29100
H3202       H  0.71753973  0.54808250  0.75239605     0.29100
H3203       H  0.62326659  0.51446925  0.72662838     0.19700
H3204       H  0.70002867  0.63369626  0.78297898     0.19700
C3205       C  0.91403273  0.57222728  0.96286034    -0.06200
C3206       C  0.92810468  0.60122557  0.94083579    -0.17300
C3207       C  0.91552110  0.62046177  0.94747824     0.11000
C3208       C  0.88751904  0.61049272  0.97633369    -0.06100
C3209       C  0.87382874  0.58224579  0.99914443    -0.17300
C3210       C  0.88637639  0.56283311  0.99263118     0.11100
S3211       S  0.93722014  0.65836791  0.91914131    -0.32300
S3212       S  0.86457509  0.52564679  0.02222997    -0.32300
H3213       H  0.86134333  0.00078656  0.98251162     0.29100
H3214       H  0.93201256  0.67767285  0.94773976     0.29100
H3215       H  0.94977021  0.60964519  0.91855260     0.19700
H3216       H  0.85213351  0.57438760  0.02122223     0.19700
C3217       C  0.92195642  0.85389459  0.96750066    -0.06200
C3218       C  0.94149753  0.84142213  0.96420317    -0.17300
C3219       C  0.92552807  0.80729719  0.97407362     0.11000
C3220       C  0.88927694  0.78501427  0.98750874    -0.06100
C3221       C  0.86862081  0.79591778  0.49012764    -0.17300
C3222       C  0.88451124  0.83005394  0.48060591     0.11100
S3223       S  0.95219641  0.79303524  0.96739306    -0.32300
S3224       S  0.85690388  0.84322832  0.48739387    -0.32300
H3225       H  0.88324271  0.87742276  0.49980034     0.29100
H3226       H  0.93196636  0.76710706  0.99499080     0.29100
H3227       H  0.96918656  0.85807293  0.95296306     0.19700
H3228       H  0.84046422  0.77824448  0.49898710     0.19700
C3229       C  0.62308001  0.55105015  0.00454756    -0.06200
C3230       C  0.64336838  0.58326646  0.52096710    -0.17300
C3231       C  0.67841074  0.59927329  0.52566094     0.11000
C3232       C  0.69374562  0.58242821  0.01368692    -0.06100
C3233       C  0.67163534  0.54820059  0.99933606    -0.17300
C3234       C  0.63636864  0.53207597  0.99496314     0.11100
S3235       S  0.70458553  0.64346795  0.54420504    -0.32300
S3236       S  0.61024012  0.48872962  0.97386259    -0.32300
H3237       H  0.63472981  0.48239969  0.97282700     0.29100
H3238       H  0.73484404  0.65557358  0.51815827     0.29100
H3239       H  0.63343659  0.59794770  0.52848499     0.19700
H3240       H  0.68285316  0.53496643  0.98954463     0.19700
C3241       C  0.82617523  0.66043348  0.82788178    -0.06200
C3242       C  0.80042674  0.65972306  0.85375740    -0.17300
C3243       C  0.79864935  0.65948822  0.89392604     0.11000
C3244       C  0.82205726  0.65753910  0.91071862    -0.06100
C3245       C  0.85090549  0.66378980  0.88517923    -0.17300
C3246       C  0.85407709  0.66670758  0.84520684     0.11100
S3247       S  0.76760546  0.66530042  0.92044517    -0.32300
S3248       S  0.89681533  0.68301118  0.82005326    -0.32300
H3249       H  0.89669156  0.70003156  0.79144299     0.29100
H3250       H  0.78546242  0.68259651  0.95246529     0.29100
H3251       H  0.78262604  0.66197016  0.84281550     0.19700
H3252       H  0.87317755  0.66956609  0.89659612     0.19700
C3253       C  0.82174301  0.65889611  0.57845506    -0.06200
C3254       C  0.82300080  0.68452267  0.60279793    -0.17300
C3255       C  0.82100645  0.68452124  0.64307801     0.11000
C3256       C  0.82234763  0.66083859  0.66088586    -0.06100
C3257       C  0.81540632  0.63228674  0.63728238    -0.17300
C3258       C  0.81370255  0.63031810  0.59744555     0.11100
S3259       S  0.81037280  0.71144713  0.66881644    -0.32300
S3260       S  0.79638390  0.58892552  0.57299656    -0.32300
H3261       H  0.80254923  0.57514706  0.59990310     0.29100
H3262       H  0.79256040  0.69146512  0.70162456     0.29100
H3263       H  0.82184395  0.70288888  0.59091905     0.19700
H3264       H  0.80870439  0.60992397  0.65055245     0.19700
loop_ 
_geom_bond_atom_site_label_1 
_geom_bond_atom_site_label_2 
_geom_bond_distance 
_geom_bond_site_symmetry_2 
_ccdc_geom_bond_type 
C1            C3   1.550       .  S
C1            C5   1.558       .  S
C1            C4   1.540       .  S
C1          C397   1.581       .  S
C2            C6   1.549       .  S
C2            C8   1.531       .  S
C2            C7   1.546       .  S
C2          C388   1.584       .  S
C3           C11   1.379       .  A
C3          C414   1.410   1_554  A
C4           C15   1.379       .  A
C4          C415   1.406   1_554  A
C5           C19   1.390       .  A
C5          C416   1.408   1_554  A
C6            C9   1.379       .  A
C6          C411   1.410       .  A
C7           C13   1.377       .  A
C7          C412   1.406       .  A
C8           C16   1.368       .  A
C8          C413   1.407       .  A
C9           N10   1.357       .  A
C9           H22   1.082       .  S
N10         C419   1.356       .  A
N10         C352   1.436       .  S
C11         N418   1.355   1_554  A
C11          H12   1.082       .  S
C13         N422   1.357       .  A
C13          H23   1.082       .  S
N14          C15   1.357       .  A
N14         C421   1.357   1_554  A
N14         C784   1.433       .  S
C15          H21   1.082       .  S
C16         N425   1.348       .  A
C16          H18   1.083       .  S
N17          C19   1.361   1_556  A
N17         C424   1.350       .  A
N17         C772   1.433       .  S
C19          H20   1.081       .  S
C24          C26   1.546       .  S
C24          C28   1.533       .  S
C24          C27   1.541       .  S
C24         C400   1.584       .  S
C25          C29   1.553       .  S
C25          C31   1.551       .  S
C25          C30   1.546       .  S
C25         C385   1.583       .  S
C26          C34   1.376       .  A
C26          C29   1.412       .  A
C27          C38   1.369       .  A
C27          C30   1.404       .  A
C28          C42   1.369       .  A
C28          C31   1.406       .  A
C29          C32   1.379       .  A
C30          C36   1.385       .  A
C31          C39   1.384       .  A
C32          N33   1.355       .  A
C32          H45   1.081       .  S
N33          C34   1.354       .  A
N33         C313   1.431       .  S
C34          H35   1.082       .  S
C36          N37   1.362       .  A
C36          H46   1.082       .  S
N37          C38   1.356       .  A
N37         C325   1.443       .  S
C38          H44   1.081       .  S
C39          N40   1.356       .  A
C39          H41   1.081       .  S
N40          C42   1.353       .  A
N40         C340   1.427       .  S
C42          H43   1.083       .  S
O47         Zr59   2.449       .  S
O47          C49   1.285       .  A
O48         Zr85   2.393       .  S
O48          C49   1.279       .  A
C49         C301   1.476       .  S
O50         Zr62   2.465       .  S
O50          C52   1.292       .  A
O51       Zr1718   2.405   1_455  S
O51          C52   1.282       .  A
C52         C277   1.473       .  S
O53         Zr62   2.443       .  S
O53          C55   1.289       .  A
O54        Zr901   2.431   1_545  S
O54          C55   1.287       .  A
C55         C373   1.489       .  S
O56         Zr59   2.409       .  S
O56        C2506   1.268       .  A
O57         Zr86   2.373       .  S
O57          C58   1.264       .  A
C58        O2504   1.268       .  A
C58         C950   1.442   1_545  S
Zr59        O876   2.443       .  S
Zr59       O1693   2.446       .  S
Zr59        O881   2.350       .  S
Zr59        O882   2.394       .  S
Zr59       O1723   2.380   1_455  S
Zr59       O1721   2.312   1_455  S
O60        Zr875   2.444       .  S
O60         H103   0.990       .  S
O61       Zr1691   2.446       .  S
O61         H102   0.989       .  S
O61        H1738   0.992       .  S
Zr62         O63   2.436       .  S
Zr62         O64   2.437       .  S
Zr62         O66   2.348       .  S
Zr62         O65   2.395       .  S
Zr62         O90   2.358       .  S
Zr62         O92   2.385   1_455  S
O63         H104   0.991       .  S
O63         H107   0.990       .  S
O64          H97   0.989       .  S
O65        Zr875   2.349       .  S
O65        Zr901   2.378   1_545  S
O66        Zr875   2.394       .  S
O66       Zr1718   2.414   1_455  S
O66          H93   0.969       .  S
O67         Zr79   2.421       .  S
O67          C69   1.284       .  A
O68        Zr902   2.443       .  S
O68          C69   1.287       .  A
C69         C292   1.486       .  S
O70        Zr490   2.430   1_564  S
O70         C888   1.270       .  A
O71        Zr493   2.378   1_654  S
O71        C1704   1.263       .  A
C72         O886   1.269       .  A
C72        O1703   1.265       .  A
C72         C936   1.413       .  S
O73         Zr82   2.455       .  S
O73          C75   1.287       .  A
O74         Zr86   2.410       .  S
O74          C75   1.283       .  A
C75         C349   1.493       .  S
O76         Zr79   2.462       .  S
O76          C78   1.291       .  A
O77       Zr1717   2.418       .  S
O77          C78   1.284       .  A
C78         C361   1.482       .  S
Zr79         O80   2.450       .  S
Zr79         O81   2.433       .  S
Zr79         O87   2.412       .  S
Zr79         O88   2.321       .  S
Zr79         O91   2.388       .  S
Zr79         O89   2.258       .  S
O80         H100   0.991       .  S
O80         H105   0.991       .  S
O81         H101   0.991       .  S
Zr82        O478   2.425   1_545  S
Zr82       O1307   2.428   1_545  S
Zr82       O2124   2.438       .  S
Zr82        O904   2.383   1_545  S
Zr82        O903   2.362   1_545  S
Zr82       O1724   2.360       .  S
Zr82       O1722   2.403       .  S
O83       Zr1306   2.430   1_554  S
O83          H99   0.991       .  S
O84       Zr2122   2.436   1_554  S
O84          H98   0.988       .  S
O84        H1740   0.993       .  S
Zr85        O870   2.426       .  S
Zr85        O479   2.377   1_455  S
Zr85       O1709   2.413   1_455  S
Zr85        O881   2.380       .  S
Zr85       O1720   2.390   1_455  S
Zr85        O906   2.435       .  S
Zr85       O1723   2.376   1_455  S
Zr86       O1683   2.411       .  S
Zr86        O884   2.450       .  S
Zr86       O1698   2.419       .  S
Zr86        O903   2.373   1_545  S
Zr86       O1724   2.368       .  S
Zr86        O905   2.291   1_545  S
O87        Zr898   2.363       .  S
O87        Zr902   2.374       .  S
O87          H95   0.968       .  S
O88        Zr898   2.385       .  S
O88       Zr1717   2.392       .  S
O89       Zr1691   2.311       .  S
O89        Zr902   2.293       .  S
O90       Zr1714   2.401   1_455  S
O90        Zr901   2.434   1_545  S
O90         H502   0.964       .  S
O91       Zr1691   2.379       .  S
O91       Zr1717   2.378       .  S
O91          H96   0.970       .  S
O92       Zr1714   2.362       .  S
O92       Zr1718   2.365       .  S
H94         O498   0.965   1_554  S
H106       O1693   0.992       .  S
H108       O1716   0.992       .  S
O109       Zr121   2.445       .  S
O109        C111   1.288       .  A
O110       Zr147   2.428       .  S
O110        C111   1.284       .  A
C111        C265   1.497       .  S
O112       Zr124   2.443       .  S
O112        C114   1.290       .  A
O113       Zr148   2.451       .  S
O113       C1746   1.290       .  A
C114       O1745   1.289       .  A
C114        C241   1.499       .  S
O115       Zr124   2.449       .  S
O115        C117   1.290       .  A
O116       Zr963   2.411   1_545  S
O116        C117   1.283       .  A
C117        C337   1.469       .  S
O118       Zr121   2.363       .  S
O118       C2568   1.262   1_455  A
O119       Zr148   2.376   1_565  S
O119        C120   1.265       .  A
C120       O2566   1.263   1_565  A
C120        C888   1.412       .  S
Zr121       O938   2.431       .  S
Zr121      O1755   2.437   1_455  S
Zr121       O943   2.343       .  S
Zr121       O944   2.417       .  S
Zr121      O1783   2.377   1_455  S
Zr121      O1785   2.345   1_455  S
O122       Zr937   2.430       .  S
O122        H165   0.990   1_565  S
O123      Zr1753   2.436       .  S
O123        H164   0.989       .  S
O123       H1800   0.991       .  S
Zr124       O125   2.439       .  S
Zr124       O126   2.434       .  S
Zr124       O128   2.345       .  S
Zr124       O127   2.377       .  S
Zr124       O152   2.345       .  S
Zr124       O154   2.388       .  S
O125        H166   0.990       .  S
O125        H169   0.990       .  S
O126        H159   0.989       .  S
O127       Zr937   2.341   1_545  S
O127       Zr963   2.379   1_545  S
O128       Zr937   2.412   1_545  S
O128      Zr1780   2.425   1_455  S
O128        H155   0.967       .  S
O129       Zr141   2.459       .  S
O129        C131   1.292       .  A
O130       Zr964   2.400       .  S
O130        C131   1.284       .  A
C131        C256   1.471       .  S
O132       Zr144   2.394   1_565  S
O132        C950   1.267       .  A
O133       Zr147   2.389   1_655  S
O133       C1766   1.262       .  A
C134        O948   1.267       .  A
C134       O1765   1.262       .  A
C134        C874   1.440       .  S
O135       Zr144   2.437       .  S
O135        C137   1.284       .  A
O136       Zr148   2.427       .  S
O136        C137   1.285       .  A
C137        C316   1.471       .  S
O138       Zr141   2.459       .  S
O138        C140   1.291       .  A
O139      Zr1779   2.430       .  S
O139        C140   1.287       .  A
C140        C328   1.474       .  S
Zr141       O142   2.437       .  S
Zr141       O143   2.434       .  S
Zr141       O149   2.392       .  S
Zr141       O150   2.335       .  S
Zr141       O153   2.398       .  S
Zr141       O151   2.327       .  S
O142        H162   0.989       .  S
O142        H167   0.991       .  S
O143        H163   0.990       .  S
Zr144       O961   2.430       .  S
Zr144      O1778   2.441       .  S
Zr144       O966   2.401   1_545  S
Zr144       O965   2.355   1_545  S
Zr144      O1786   2.354       .  S
Zr144      O1784   2.396       .  S
O145       Zr960   2.430       .  S
O145        H161   0.991       .  S
O146      Zr1776   2.443   1_455  S
O146        H160   0.989       .  S
O146       H1802   0.991       .  S
Zr147       O932   2.415       .  S
Zr147      O1771   2.428   1_455  S
Zr147       O943   2.379       .  S
Zr147      O1782   2.404   1_455  S
Zr147       O968   2.428       .  S
Zr147      O1785   2.368   1_455  S
Zr148       O946   2.406   1_545  S
Zr148      O1760   2.421       .  S
Zr148       O965   2.378   1_545  S
Zr148       O967   2.398   1_545  S
Zr148      O1786   2.359       .  S
O149       Zr960   2.358       .  S
O149       Zr964   2.377       .  S
O149        H157   0.964       .  S
O150       Zr960   2.399       .  S
O150      Zr1779   2.404       .  S
O151      Zr1753   2.378       .  S
O151       Zr964   2.399       .  S
O152      Zr1776   2.401   1_455  S
O152       Zr963   2.429   1_545  S
O152        H156   0.963       .  S
O153      Zr1753   2.344       .  S
O153      Zr1779   2.371       .  S
O153        H158   0.960       .  S
O154      Zr1776   2.352   1_455  S
O154      Zr1780   2.364   1_455  S
H168       O1755   0.990       .  S
H170       O1778   0.989       .  S
C171        C173   1.548       .  S
C171        C175   1.552       .  S
C171        C174   1.541       .  S
C171        C220   1.586       .  S
C172        C176   1.544       .  S
C172        C178   1.540       .  S
C172        C177   1.539       .  S
C172        C229   1.589       .  S
C173        C181   1.376       .  A
C173        C176   1.411       .  A
C174        C185   1.379       .  A
C174        C177   1.405       .  A
C175        C189   1.383       .  A
C175        C178   1.412       .  A
C176        C179   1.374       .  A
C177        C183   1.370       .  A
C178        C186   1.371       .  A
C179        N180   1.354       .  A
C179        H192   1.081       .  S
N180        C181   1.353       .  A
N180        C304   1.430       .  S
C181        H182   1.082       .  S
C183        N184   1.351       .  A
C183        H193   1.082       .  S
N184        C185   1.356       .  A
N184        C280   1.425       .  S
C185        H191   1.082       .  S
C186        N187   1.355       .  A
C186        H188   1.083       .  S
N187        C189   1.357       .  A
N187        C289   1.432       .  S
C189        H190   1.081       .  S
C194        C196   1.563       .  S
C194        C198   1.542       .  S
C194        C197   1.550       .  S
C194        C232   1.587       .  S
C195        C199   1.549       .  S
C195        C201   1.533       .  S
C195        C200   1.541       .  S
C195        C217   1.584       .  S
C196        C204   1.384       .  A
C196        C199   1.412       .  A
C197        C208   1.385       .  A
C197        C200   1.406       .  A
C198        C212   1.379       .  A
C198        C201   1.403       .  A
C199        C202   1.377       .  A
C200        C206   1.375       .  A
C201        C209   1.370       .  A
C202        N203   1.358       .  A
C202        H215   1.081       .  S
N203        C204   1.364       .  A
N203        C268   1.451       .  S
C204        H205   1.080       .  S
C206        N207   1.358       .  A
C206        H216   1.083       .  S
N207        C208   1.357       .  A
N207        C244   1.438       .  S
C208        H214   1.081       .  S
C209        N210   1.352       .  A
C209        H211   1.082       .  S
N210        C212   1.356       .  A
N210        C253   1.426       .  S
C212        H213   1.082       .  S
C217        C218   1.412       .  A
C217        C222   1.432       .  A
C218        C219   1.419       .  A
C218        H227   1.081       .  S
C219        C220   1.434       .  A
C219        S223   1.808       .  S
C220        C221   1.414       .  A
C221        C222   1.422       .  A
C221        H228   1.080       .  S
C222        S224   1.808       .  S
S223        H226   1.397       .  S
S224        H225   1.400       .  S
C229        C230   1.414       .  A
C229        C234   1.429       .  A
C230        C231   1.419       .  A
C230        H239   1.082       .  S
C231        C640   1.433       .  A
C231        S235   1.807       .  S
C232        C639   1.434   1_554  A
C232        C641   1.418       .  A
C233        C234   1.424       .  A
C233        C640   1.417       .  A
C233        H648   1.080       .  S
C234        S236   1.804       .  S
S235        H646   1.398       .  S
S236        H237   1.403       .  S
H238        S643   1.398       .  S
H240        C641   1.080       .  S
C241        C242   1.410       .  A
C241        C246   1.424       .  A
C242        C243   1.396       .  A
C242        H251   1.084       .  S
C243        C244   1.407       .  A
C243        S247   1.803       .  S
C244        C245   1.401       .  A
C245        C246   1.407       .  A
C245        H252   1.083       .  S
C246       S1880   1.798   1_455  S
S247        H250   1.406       .  S
S248       C1878   1.798       .  S
S248        H249   1.399       .  S
C253        C254   1.400       .  A
C253        C258   1.407       .  A
C254        C255   1.396       .  A
C254        H263   1.084       .  S
C255        C256   1.412       .  A
C255        S259   1.801       .  S
C256        C257   1.404       .  A
C257        C258   1.396       .  A
C257        H264   1.084       .  S
C258        S260   1.802       .  S
S259        H262   1.406       .  S
S260        H261   1.406       .  S
C265        C266   1.410       .  A
C265        C270   1.421       .  A
C266        C267   1.400       .  A
C266        H275   1.084       .  S
C267        C268   1.415       .  A
C267        S271   1.803       .  S
C268        C269   1.408       .  A
C269        C270   1.403       .  A
C269        H276   1.083       .  S
C270        S272   1.805       .  S
S271        H274   1.408       .  S
S272       H1905   1.396       .  S
H273       S1904   1.397       .  S
C277        C278   1.404       .  A
C277        C282   1.411       .  A
C278        C279   1.397       .  A
C278        H287   1.083       .  S
C279        C280   1.407       .  A
C279        S283   1.802       .  S
C280        C281   1.398       .  A
C281        C282   1.400       .  A
C281        H288   1.083       .  S
C282        S284   1.803       .  S
S283        H286   1.406       .  S
S284        H285   1.407       .  S
C289        C290   1.399       .  A
C289        C294   1.408       .  A
C290        C291   1.403       .  A
C290        H299   1.082       .  S
C291        C292   1.418       .  A
C291        S295   1.805       .  S
C292        C293   1.408       .  A
C293        C294   1.398       .  A
C293        H300   1.084       .  S
C294        S296   1.803       .  S
S295        H298   1.407       .  S
S296        H297   1.406       .  S
C301        C302   1.406       .  A
C301        C306   1.414       .  A
C302        C303   1.393       .  A
C302        H311   1.084       .  S
C303        C304   1.408       .  A
C303        S307   1.803       .  S
C304        C305   1.402       .  A
C305        C306   1.399       .  A
C305        H312   1.083       .  S
C306       S1124   1.803       .  S
S307        H310   1.407       .  S
S308       C1122   1.803   1_545  S
S308        H309   1.407       .  S
C313        C314   1.400       .  A
C313        C318   1.410       .  A
C314        C315   1.399       .  A
C314        H323   1.083       .  S
C315        C316   1.414       .  A
C315        S319   1.804       .  S
C316        C317   1.402       .  A
C317        C318   1.398       .  A
C317        H324   1.081       .  S
C318        S320   1.803       .  S
S319       H1138   1.403   1_545  S
S320        H321   1.407       .  S
H322       S1135   1.405       .  S
C325        C326   1.404       .  A
C325        C330   1.419       .  A
C326        C327   1.394       .  A
C326        H335   1.083       .  S
C327        C328   1.410       .  A
C327        S331   1.801       .  S
C328        C329   1.402       .  A
C329        C330   1.406       .  A
C329        H336   1.084       .  S
C330        S332   1.799       .  S
S331        H334   1.406       .  S
S332        H333   1.407       .  S
C337        C338   1.404       .  A
C337        C342   1.408       .  A
C338        C339   1.398       .  A
C338        H347   1.084       .  S
C339        C340   1.408       .  A
C339        S343   1.802       .  S
C340        C341   1.399       .  A
C341        C342   1.399       .  A
C341        H348   1.083       .  S
C342        S344   1.804       .  S
S343        H346   1.406       .  S
S344        H345   1.407       .  S
C349        C350   1.410       .  A
C349        C354   1.420       .  A
C350        C351   1.397       .  A
C350        H359   1.083       .  S
C351        C352   1.408       .  A
C351        S355   1.803       .  S
C352        C353   1.402       .  A
C353        C354   1.403       .  A
C353        H360   1.084       .  S
C354        S356   1.802       .  S
S355        H358   1.407       .  S
S356       H1173   1.408   1_545  S
H357       S1172   1.408       .  S
C361        C362   1.407       .  A
C361        C774   1.415       .  A
C362        C363   1.402       .  A
C362        H371   1.084       .  S
C363        C364   1.410       .  A
C363        S367   1.803       .  S
C364        C773   1.398       .  A
C364        N425   1.432       .  S
C365        C366   1.400       .  A
C365        C772   1.400       .  A
C365        H372   1.083   1_556  S
C366        C769   1.416       .  A
C366        S368   1.801       .  S
S367        H370   1.405       .  S
S368        H369   1.407   1_556  S
C373        C378   1.419       .  A
C373        C782   1.406       .  A
C374        C375   1.399       .  A
C374        C781   1.406       .  A
C374        H383   1.084       .  S
C375        C784   1.410       .  A
C375        S379   1.802       .  S
C376        C377   1.399       .  A
C376        C783   1.410       .  A
C376        N422   1.435       .  S
C377        C378   1.404       .  A
C377        H384   1.083       .  S
C378        S380   1.804   1_545  S
S379        H382   1.406       .  S
S380        H381   1.407       .  S
C385        C386   1.413       .  A
C385        C390   1.430       .  A
C386        C387   1.419       .  A
C386        H395   1.080       .  S
C387        C388   1.433       .  A
C387        S391   1.807       .  S
C388        C389   1.416       .  A
C389        C390   1.420       .  A
C389        H396   1.079       .  S
C390        S392   1.806       .  S
S391        H394   1.398       .  S
S392        H393   1.400       .  S
C397        C398   1.412       .  A
C397        C402   1.429       .  A
C398        C399   1.420       .  A
C398        H407   1.079       .  S
C399        C400   1.432       .  A
C399        S403   1.807       .  S
C400        C401   1.414       .  A
C401        C402   1.422       .  A
C401        H408   1.079       .  S
C402        S404   1.810       .  S
S403        H406   1.400       .  S
S404        H405   1.406       .  S
C409        C411   1.550       .  S
C409        C413   1.559       .  S
C409        C412   1.541       .  S
C409        C805   1.582       .  S
C410        C414   1.549       .  S
C410        C416   1.534       .  S
C410        C415   1.545       .  S
C410        C796   1.586       .  S
C411        C419   1.379       .  A
C412        C423   1.380       .  A
C413        C427   1.391       .  A
C414        C417   1.378       .  A
C415        C421   1.375       .  A
C416        C424   1.370       .  A
C417        N418   1.356       .  A
C417        H430   1.082       .  S
N418        C760   1.435       .  S
C419        H420   1.082       .  S
C421        H431   1.081       .  S
N422        C423   1.357       .  A
C423        H429   1.082       .  S
C424        H426   1.083       .  S
N425        C427   1.361       .  A
C427        H428   1.081       .  S
C432        C434   1.546       .  S
C432        C436   1.533       .  S
C432        C435   1.540       .  S
C432        C808   1.586       .  S
C433        C437   1.555       .  S
C433        C439   1.550       .  S
C433        C438   1.545       .  S
C433        C793   1.585       .  S
C434        C442   1.376       .  A
C434        C437   1.413       .  A
C435        C446   1.369       .  A
C435        C438   1.405       .  A
C436        C450   1.369       .  A
C436        C439   1.407       .  A
C437        C440   1.380       .  A
C438        C444   1.383       .  A
C439        C447   1.383       .  A
C440        N441   1.356       .  A
C440        H453   1.081       .  S
N441        C442   1.354       .  A
N441        C721   1.432       .  S
C442        H443   1.082       .  S
C444        N445   1.361       .  A
C444        H454   1.082       .  S
N445        C446   1.355       .  A
N445        C733   1.440       .  S
C446        H452   1.081       .  S
C447        N448   1.355       .  A
C447        H449   1.081       .  S
N448        C450   1.352       .  A
N448        C748   1.426       .  S
C450        H451   1.083       .  S
O455       Zr467   2.443       .  S
O455        C457   1.284       .  A
O456       Zr493   2.390       .  S
O456        C457   1.278       .  A
C457        C709   1.474       .  S
O458       Zr470   2.466       .  S
O458        C460   1.292       .  A
O459      Zr2126   2.408   1_455  S
O459        C460   1.283       .  A
C460        C685   1.477       .  S
O461       Zr470   2.441       .  S
O461        C463   1.289       .  A
O462      Zr1309   2.430   1_545  S
O462        C463   1.287       .  A
C463        C781   1.488   1_556  S
O464       Zr467   2.408       .  S
O464       C2914   1.268       .  A
O465       Zr494   2.375       .  S
O465        C466   1.264       .  A
C466       O2912   1.268       .  A
C466       C1358   1.441   1_545  S
Zr467      O1284   2.445       .  S
Zr467      O2101   2.444       .  S
Zr467      O1289   2.347       .  S
Zr467      O1290   2.391       .  S
Zr467      O2131   2.381   1_455  S
Zr467      O2129   2.311   1_455  S
O468      Zr1283   2.444       .  S
O468        H511   0.989       .  S
O469      Zr2099   2.446       .  S
O469        H510   0.990       .  S
O469       H2146   0.991       .  S
Zr470       O471   2.434       .  S
Zr470       O472   2.437   1_556  S
Zr470       O474   2.351       .  S
Zr470       O473   2.396       .  S
Zr470       O498   2.355       .  S
Zr470       O500   2.387   1_455  S
O471        H512   0.989       .  S
O471        H515   0.990       .  S
O472        H505   0.990   1_554  S
O473      Zr1283   2.351       .  S
O473      Zr1309   2.378   1_545  S
O474      Zr1283   2.391       .  S
O474      Zr2126   2.417   1_455  S
O474        H501   0.969       .  S
O475       Zr487   2.425       .  S
O475        C477   1.285       .  A
O476      Zr1310   2.446       .  S
O476        C477   1.288       .  A
C477        C700   1.489       .  S
O478       C1296   1.269       .  A
O479       C2112   1.264       .  A
C480       O1294   1.269       .  A
C480       O2111   1.264       .  A
C480       C1344   1.416       .  S
O481       Zr490   2.451       .  S
O481        C483   1.287       .  A
O482       Zr494   2.411       .  S
O482        C483   1.283       .  A
C483        C757   1.492       .  S
O484       Zr487   2.466       .  S
O484        C486   1.292       .  A
O485      Zr2125   2.414       .  S
O485        C486   1.284       .  A
C486        C769   1.483       .  S
Zr487       O488   2.449       .  S
Zr487       O489   2.432       .  S
Zr487       O495   2.409       .  S
Zr487       O496   2.314       .  S
Zr487       O499   2.389       .  S
Zr487       O497   2.261       .  S
O488        H508   0.991       .  S
O488        H513   0.991       .  S
O489        H509   0.989       .  S
Zr490       O899   2.428   1_546  S
Zr490      O1716   2.437   1_556  S
Zr490      O1312   2.376   1_545  S
Zr490      O1311   2.365   1_545  S
Zr490      O2132   2.363       .  S
Zr490      O2130   2.404       .  S
O491       Zr898   2.430       .  S
O491        H507   0.990       .  S
O492      Zr1714   2.437       .  S
O492        H506   0.988       .  S
O492       H2148   0.991       .  S
Zr493      O1278   2.429       .  S
Zr493      O2117   2.415   1_455  S
Zr493      O1289   2.379       .  S
Zr493      O2128   2.391   1_455  S
Zr493      O1314   2.433       .  S
Zr493      O2131   2.378   1_455  S
Zr494      O2091   2.413       .  S
Zr494      O1292   2.447       .  S
Zr494      O2106   2.417       .  S
Zr494      O1311   2.374   1_545  S
Zr494      O2132   2.368       .  S
Zr494      O1313   2.293   1_545  S
O495      Zr1306   2.362       .  S
O495      Zr1310   2.372       .  S
O495        H503   0.967       .  S
O496      Zr1306   2.379       .  S
O496      Zr2125   2.388       .  S
O497      Zr2099   2.310       .  S
O497      Zr1310   2.293       .  S
O498      Zr2122   2.405   1_455  S
O498      Zr1309   2.434   1_545  S
O499      Zr2099   2.380       .  S
O499      Zr2125   2.378       .  S
O499        H504   0.967       .  S
O500      Zr2122   2.364       .  S
O500      Zr2126   2.368       .  S
H514       O2101   0.993       .  S
H516       O2124   0.992       .  S
O517       Zr529   2.437       .  S
O517        C519   1.286       .  A
O518       Zr555   2.427       .  S
O518        C519   1.284       .  A
C519        C673   1.495       .  S
O520       Zr532   2.434       .  S
O520        C522   1.288       .  A
O521       Zr556   2.450       .  S
O521       C2154   1.290       .  A
C522       O2153   1.291       .  A
C522        C649   1.502       .  S
O523       Zr532   2.439       .  S
O523        C525   1.288       .  A
O524      Zr1371   2.417   1_545  S
O524        C525   1.284       .  A
C525        C745   1.468       .  S
O526       Zr529   2.355       .  S
O526       C2976   1.262   1_455  A
O527       Zr556   2.378   1_565  S
O527        C528   1.265       .  A
C528       O2974   1.263   1_565  A
C528       C1296   1.416       .  S
Zr529      O1346   2.431       .  S
Zr529      O2163   2.436   1_455  S
Zr529      O1351   2.339       .  S
Zr529      O1352   2.410       .  S
Zr529      O2191   2.376   1_455  S
Zr529      O2193   2.344   1_455  S
O530      Zr1345   2.429       .  S
O530        H573   0.990   1_565  S
O531      Zr2161   2.437       .  S
O531        H572   0.990       .  S
O531       H2208   0.989       .  S
Zr532       O533   2.439       .  S
Zr532       O534   2.434       .  S
Zr532       O536   2.348       .  S
Zr532       O535   2.378       .  S
Zr532       O560   2.346       .  S
Zr532       O562   2.385       .  S
O533        H574   0.989       .  S
O533        H577   0.990       .  S
O534        H567   0.990       .  S
O535      Zr1345   2.343   1_545  S
O535      Zr1371   2.380   1_545  S
O536      Zr1345   2.411   1_545  S
O536      Zr2188   2.424   1_455  S
O536        H563   0.967       .  S
O537       Zr549   2.448       .  S
O537        C539   1.290       .  A
O538      Zr1372   2.403       .  S
O538        C539   1.284       .  A
C539        C664   1.468       .  S
O540       Zr552   2.395   1_565  S
O540       C1358   1.268       .  A
O541       Zr555   2.390   1_655  S
O541       C2174   1.263       .  A
C542       O1356   1.266       .  A
C542       O2173   1.263       .  A
C542       C1282   1.441       .  S
O543       Zr552   2.439       .  S
O543        C545   1.284       .  A
O544       Zr556   2.426       .  S
O544        C545   1.285       .  A
C545        C724   1.471       .  S
O546       Zr549   2.455       .  S
O546        C548   1.290       .  A
O547      Zr2187   2.427       .  S
O547        C548   1.286       .  A
C548        C736   1.471       .  S
Zr549       O550   2.434       .  S
Zr549       O551   2.435       .  S
Zr549       O557   2.395       .  S
Zr549       O558   2.336       .  S
Zr549       O561   2.391       .  S
Zr549       O559   2.330       .  S
O550        H570   0.990       .  S
O550        H575   0.990       .  S
O551        H571   0.991       .  S
Zr552      O1369   2.432       .  S
Zr552      O2186   2.444       .  S
Zr552      O1374   2.402   1_545  S
Zr552      O1373   2.358   1_545  S
Zr552      O2194   2.353       .  S
Zr552      O2192   2.398       .  S
O553      Zr1368   2.431       .  S
O553        H569   0.990       .  S
O554      Zr2184   2.443   1_455  S
O554        H568   0.989       .  S
O554       H2210   0.992   1_455  S
Zr555      O1340   2.416       .  S
Zr555      O2179   2.424   1_455  S
Zr555      O1351   2.378       .  S
Zr555      O2190   2.404   1_455  S
Zr555      O1376   2.428       .  S
Zr555      O2193   2.370   1_455  S
Zr556      O1354   2.402   1_545  S
Zr556      O2168   2.422       .  S
Zr556      O1373   2.379   1_545  S
Zr556      O1375   2.399   1_545  S
Zr556      O2194   2.361       .  S
O557      Zr1368   2.357       .  S
O557      Zr1372   2.377       .  S
O557        H565   0.964       .  S
O558      Zr1368   2.401       .  S
O558      Zr2187   2.401       .  S
O559      Zr2161   2.374       .  S
O559      Zr1372   2.397       .  S
O560      Zr2184   2.399   1_455  S
O560      Zr1371   2.428   1_545  S
O560        H564   0.963       .  S
O561      Zr2161   2.343       .  S
O561      Zr2187   2.369       .  S
O561        H566   0.963       .  S
O562      Zr2184   2.353   1_455  S
O562      Zr2188   2.360   1_455  S
H576       O2163   0.990       .  S
H578       O2186   0.990       .  S
C579        C581   1.548       .  S
C579        C583   1.554       .  S
C579        C582   1.540       .  S
C579        C628   1.585       .  S
C580        C584   1.541       .  S
C580        C586   1.541       .  S
C580        C585   1.540       .  S
C580        C637   1.588       .  S
C581        C589   1.376       .  A
C581        C584   1.411       .  A
C582        C593   1.378       .  A
C582        C585   1.406       .  A
C583        C597   1.385       .  A
C583        C586   1.412       .  A
C584        C587   1.372       .  A
C585        C591   1.371       .  A
C586        C594   1.372       .  A
C587        N588   1.354       .  A
C587        H600   1.081       .  S
N588        C589   1.354       .  A
N588        C712   1.430       .  S
C589        H590   1.082       .  S
C591        N592   1.351       .  A
C591        H601   1.081       .  S
N592        C593   1.356       .  A
N592        C688   1.424       .  S
C593        H599   1.082       .  S
C594        N595   1.356       .  A
C594        H596   1.083       .  S
N595        C597   1.358       .  A
N595        C697   1.434       .  S
C597        H598   1.081       .  S
C602        C604   1.563       .  S
C602        C606   1.543       .  S
C602        C605   1.550       .  S
C602        C640   1.587       .  S
C603        C607   1.547       .  S
C603        C609   1.533       .  S
C603        C608   1.541       .  S
C603        C625   1.583       .  S
C604        C612   1.384       .  A
C604        C607   1.411       .  A
C605        C616   1.384       .  A
C605        C608   1.406       .  A
C606        C620   1.380       .  A
C606        C609   1.403       .  A
C607        C610   1.376       .  A
C608        C614   1.376       .  A
C609        C617   1.369       .  A
C610        N611   1.358       .  A
C610        H623   1.081       .  S
N611        C612   1.365       .  A
N611        C676   1.451       .  S
C612        H613   1.080       .  S
C614        N615   1.358       .  A
C614        H624   1.083       .  S
N615        C616   1.358       .  A
N615        C652   1.439       .  S
C616        H622   1.081       .  S
C617        N618   1.352       .  A
C617        H619   1.082       .  S
N618        C620   1.357       .  A
N618        C661   1.426       .  S
C620        H621   1.082       .  S
C625        C626   1.412       .  A
C625        C630   1.432       .  A
C626        C627   1.419       .  A
C626        H635   1.081       .  S
C627        C628   1.434       .  A
C627        S631   1.808       .  S
C628        C629   1.414       .  A
C629        C630   1.421       .  A
C629        H636   1.080       .  S
C630        S632   1.807       .  S
S631        H634   1.398       .  S
S632        H633   1.399       .  S
C637        C638   1.412       .  A
C637        C642   1.430       .  A
C638        C639   1.419       .  A
C638        H647   1.082       .  S
C639        S643   1.806   1_556  S
C641        C642   1.425   1_554  A
C642        S644   1.805       .  S
S644        H645   1.403       .  S
C649        C650   1.412       .  A
C649        C654   1.423       .  A
C650        C651   1.398       .  A
C650        H659   1.084       .  S
C651        C652   1.407       .  A
C651        S655   1.804       .  S
C652        C653   1.401       .  A
C653        C654   1.408       .  A
C653        H660   1.083       .  S
C654       S2288   1.798   1_455  S
S655        H658   1.406       .  S
S656       C2286   1.798       .  S
S656        H657   1.399       .  S
C661        C662   1.401       .  A
C661        C666   1.407       .  A
C662        C663   1.397       .  A
C662        H671   1.084       .  S
C663        C664   1.412       .  A
C663        S667   1.803       .  S
C664        C665   1.403       .  A
C665        C666   1.394       .  A
C665        H672   1.084       .  S
C666        S668   1.802       .  S
S667        H670   1.406       .  S
S668        H669   1.406       .  S
C673        C674   1.410       .  A
C673        C678   1.420       .  A
C674        C675   1.399       .  A
C674        H683   1.084       .  S
C675        C676   1.415       .  A
C675        S679   1.803       .  S
C676        C677   1.409       .  A
C677        C678   1.403       .  A
C677        H684   1.082       .  S
C678        S680   1.805       .  S
S679        H682   1.407       .  S
S680       H2313   1.398       .  S
H681       S2312   1.398       .  S
C685        C686   1.406       .  A
C685        C690   1.414       .  A
C686        C687   1.396       .  A
C686        H695   1.083       .  S
C687        C688   1.404       .  A
C687        S691   1.802       .  S
C688        C689   1.398       .  A
C689        C690   1.400       .  A
C689        H696   1.083       .  S
C690        S692   1.804       .  S
S691        H694   1.405       .  S
S692        H693   1.407       .  S
C697        C698   1.399       .  A
C697        C702   1.409       .  A
C698        C699   1.404       .  A
C698        H707   1.082       .  S
C699        C700   1.418       .  A
C699        S703   1.805       .  S
C700        C701   1.408       .  A
C701        C702   1.399       .  A
C701        H708   1.084       .  S
C702        S704   1.803       .  S
S703        H706   1.407       .  S
S704        H705   1.405       .  S
C709        C710   1.406       .  A
C709        C714   1.414       .  A
C710        C711   1.392       .  A
C710        H719   1.084       .  S
C711        C712   1.410       .  A
C711        S715   1.803       .  S
C712        C713   1.401       .  A
C713        C714   1.397       .  A
C713        H720   1.083       .  S
C714       S1532   1.803       .  S
S715        H718   1.407       .  S
S716       C1530   1.802   1_545  S
S716        H717   1.408       .  S
C721        C722   1.401       .  A
C721        C726   1.411       .  A
C722        C723   1.400       .  A
C722        H731   1.083       .  S
C723        C724   1.414       .  A
C723        S727   1.804       .  S
C724        C725   1.400       .  A
C725        C726   1.396       .  A
C725        H732   1.081       .  S
C726        S728   1.802       .  S
S727       H1546   1.405   1_545  S
S728        H729   1.407       .  S
H730       S1543   1.406       .  S
C733        C734   1.402       .  A
C733        C738   1.418       .  A
C734        C735   1.393       .  A
C734        H743   1.083       .  S
C735        C736   1.410       .  A
C735        S739   1.800       .  S
C736        C737   1.401       .  A
C737        C738   1.404       .  A
C737        H744   1.084       .  S
C738        S740   1.800       .  S
S739        H742   1.406       .  S
S740        H741   1.407       .  S
C745        C746   1.403       .  A
C745        C750   1.410       .  A
C746        C747   1.397       .  A
C746        H755   1.084       .  S
C747        C748   1.407       .  A
C747        S751   1.803       .  S
C748        C749   1.399       .  A
C749        C750   1.400       .  A
C749        H756   1.083       .  S
C750        S752   1.806       .  S
S751        H754   1.405       .  S
S752        H753   1.407       .  S
C757        C758   1.409       .  A
C757        C762   1.419       .  A
C758        C759   1.395       .  A
C758        H767   1.083       .  S
C759        C760   1.407       .  A
C759        S763   1.803       .  S
C760        C761   1.403       .  A
C761        C762   1.403       .  A
C761        H768   1.084   1_556  S
C762        S764   1.803   1_556  S
S763        H766   1.406       .  S
S764       H1581   1.408   1_544  S
H765       S1580   1.408   1_556  S
C769        C770   1.406       .  A
C770        C771   1.401       .  A
C770        H779   1.084       .  S
C771        C772   1.409       .  A
C771        S775   1.801       .  S
C773        C774   1.399       .  A
C773        H780   1.084       .  S
C774        S776   1.801       .  S
S775        H778   1.405       .  S
S776        H777   1.407       .  S
C781        C786   1.419   1_554  A
C782        C783   1.399       .  A
C782        H791   1.084       .  S
C783        S787   1.801       .  S
C784        C785   1.398       .  A
C785        C786   1.404   1_554  A
C785        H792   1.082   1_554  S
C786        S788   1.805   1_545  S
S787        H790   1.406       .  S
S788        H789   1.407       .  S
C793        C794   1.414       .  A
C793        C798   1.430       .  A
C794        C795   1.420       .  A
C794        H803   1.080       .  S
C795        C796   1.433       .  A
C795        S799   1.808       .  S
C796        C797   1.417       .  A
C797        C798   1.421       .  A
C797        H804   1.079       .  S
C798        S800   1.806       .  S
S799        H802   1.397       .  S
S800        H801   1.399       .  S
C805        C806   1.412       .  A
C805        C810   1.429       .  A
C806        C807   1.421       .  A
C806        H815   1.078       .  S
C807        C808   1.433       .  A
C807        S811   1.807       .  S
C808        C809   1.414       .  A
C809        C810   1.423       .  A
C809        H816   1.079       .  S
C810        S812   1.810       .  S
S811        H814   1.400       .  S
S812        H813   1.406       .  S
C817        C819   1.552       .  S
C817        C821   1.559       .  S
C817        C820   1.540       .  S
C817       C1213   1.581       .  S
C818        C822   1.553       .  S
C818        C824   1.534       .  S
C818        C823   1.547       .  S
C818       C1204   1.585       .  S
C819        C827   1.380       .  A
C819       C1230   1.410   1_554  A
C820        C831   1.379       .  A
C820       C1231   1.405   1_554  A
C821        C835   1.390       .  A
C821       C1232   1.407   1_554  A
C822       C1227   1.410       .  A
C822        C825   1.381       .  A
C823       C1228   1.405       .  A
C823        C829   1.377       .  A
C824       C1229   1.407       .  A
C824        C832   1.371       .  A
C825        N826   1.359       .  A
C825        H838   1.082       .  S
N826       C1235   1.357       .  A
N826       C1168   1.441       .  S
C827       N1234   1.357   1_554  A
C827        H828   1.082       .  S
C829       N1238   1.357       .  A
C829        H839   1.082       .  S
N830       C1237   1.357   1_554  A
N830        C831   1.356       .  A
N830       C1600   1.434       .  S
C831        H837   1.082       .  S
C832       N1241   1.350       .  A
C832        H834   1.083       .  S
N833       C1240   1.350       .  A
N833        C835   1.361   1_556  A
N833       C1588   1.432       .  S
C835        H836   1.081       .  S
C840        C842   1.547       .  S
C840        C844   1.532       .  S
C840        C843   1.541       .  S
C840       C1216   1.585       .  S
C841        C845   1.553       .  S
C841        C847   1.550       .  S
C841        C846   1.545       .  S
C841       C1201   1.585       .  S
C842        C850   1.377       .  A
C842        C845   1.413       .  A
C843        C854   1.370       .  A
C843        C846   1.405       .  A
C844        C858   1.369       .  A
C844        C847   1.407       .  A
C845        C848   1.380       .  A
C846        C852   1.383       .  A
C847        C855   1.383       .  A
C848        N849   1.356       .  A
C848        H861   1.081       .  S
N849        C850   1.354       .  A
N849       C1129   1.433       .  S
C850        H851   1.082       .  S
C852        N853   1.361       .  A
C852        H862   1.082       .  S
N853        C854   1.356       .  A
N853       C1141   1.442       .  S
C854        H860   1.081       .  S
C855        N856   1.354       .  A
C855        H857   1.081       .  S
N856        C858   1.352       .  A
N856       C1156   1.425       .  S
C858        H859   1.083       .  S
O863       Zr875   2.444   1_565  S
O863        C865   1.284       .  A
O864       Zr901   2.394       .  S
O864        C865   1.279       .  A
C865       C1117   1.475       .  S
O866       Zr878   2.468       .  S
O866        C868   1.292       .  A
O867      Zr2534   2.407   1_455  S
O867        C868   1.283       .  A
C868       C1093   1.475       .  S
O869       Zr878   2.447       .  S
O869        C871   1.290       .  A
O870        C871   1.286       .  A
C871       C1189   1.488       .  S
O872       Zr875   2.407       .  S
O872       C1690   1.268       .  A
O873       Zr902   2.373       .  S
O873        C874   1.263       .  A
C874       O1688   1.268       .  A
Zr875      O2509   2.445   1_545  S
Zr875      O2539   2.381   1_445  S
Zr875      O2537   2.313   1_445  S
O876        H919   0.988       .  S
O877      Zr2507   2.444   1_565  S
O877        H918   0.989       .  S
O877       H2554   0.993       .  S
Zr878       O879   2.435       .  S
Zr878       O880   2.436       .  S
Zr878       O882   2.351       .  S
Zr878       O881   2.396       .  S
Zr878       O906   2.354       .  S
Zr878       O908   2.389   1_455  S
O879        H920   0.989       .  S
O879        H923   0.990       .  S
O880        H913   0.989       .  S
O882      Zr2534   2.419   1_455  S
O882        H909   0.968       .  S
O883       Zr895   2.419       .  S
O883        C885   1.283       .  A
O884        C885   1.289   1_545  A
C885       C1108   1.488       .  S
O886      Zr1306   2.426   1_554  S
O887      Zr1309   2.379   1_654  S
O887       C2520   1.264       .  A
C888       O2519   1.263       .  A
O889       Zr898   2.458       .  S
O889        C891   1.287       .  A
O890       Zr902   2.415       .  S
O890        C891   1.284       .  A
C891       C1165   1.499       .  S
O892       Zr895   2.464       .  S
O892        C894   1.291       .  A
O893      Zr2533   2.422       .  S
O893        C894   1.285       .  A
C894       C1177   1.487       .  S
Zr895       O896   2.449       .  S
Zr895       O897   2.431       .  S
Zr895       O903   2.410       .  S
Zr895       O904   2.318       .  S
Zr895       O907   2.384       .  S
Zr895       O905   2.259       .  S
O896        H916   0.992       .  S
O896        H921   0.991       .  S
O897        H917   0.990       .  S
Zr898      O1294   2.425       .  S
Zr898      O2940   2.437       .  S
Zr898      O2540   2.360       .  S
Zr898      O2538   2.403       .  S
O899        H915   0.990       .  S
O900      Zr2938   2.438   1_554  S
O900        H914   0.991       .  S
O900       H2556   0.990       .  S
Zr901      O1295   2.380   1_455  S
Zr901      O2525   2.415   1_455  S
Zr901      O2536   2.389   1_455  S
Zr901      O2539   2.378   1_455  S
Zr902      O2499   2.409       .  S
Zr902      O2514   2.418       .  S
Zr902      O2540   2.364       .  S
O903        H911   0.968       .  S
O904      Zr2533   2.389       .  S
O905      Zr2507   2.311   1_565  S
O906      Zr2530   2.404   1_455  S
O906       H1318   0.960       .  S
O907      Zr2507   2.382   1_565  S
O907      Zr2533   2.376       .  S
O907        H912   0.968       .  S
O908      Zr2530   2.362       .  S
O908      Zr2534   2.366       .  S
H910       O1314   0.964   1_554  S
H922       O2509   0.993       .  S
H924       O2532   0.991       .  S
O925       Zr937   2.436       .  S
O925        C927   1.286       .  A
O926       Zr963   2.423       .  S
O926        C927   1.283       .  A
C927       C1081   1.493       .  S
O928       Zr940   2.440       .  S
O928        C930   1.289       .  A
O929       Zr964   2.443       .  S
O929       C2562   1.288       .  A
C930       O2561   1.289       .  A
C930       C1057   1.502       .  S
O931       Zr940   2.438       .  S
O931        C933   1.288       .  A
O932        C933   1.284       .  A
C933       C1153   1.467       .  S
O934       Zr937   2.358   1_545  S
O934       C1752   1.261   1_445  A
O935       Zr964   2.377       .  S
O935        C936   1.265       .  A
C936       O1750   1.261       .  A
Zr937      O2571   2.436   1_455  S
Zr937      O2599   2.376   1_455  S
Zr937      O2601   2.345   1_455  S
O938        H981   0.991       .  S
O939      Zr2569   2.436       .  S
O939        H980   0.989       .  S
O939       H2616   0.989       .  S
Zr940       O941   2.439       .  S
Zr940       O942   2.434       .  S
Zr940       O944   2.340       .  S
Zr940       O943   2.379       .  S
Zr940       O968   2.344       .  S
Zr940       O970   2.386       .  S
O941        H982   0.992       .  S
O941        H985   0.988       .  S
O942        H975   0.988       .  S
O944      Zr2596   2.424   1_455  S
O944        H971   0.967       .  S
O945       Zr957   2.459       .  S
O945        C947   1.292       .  A
O946        C947   1.285       .  A
C947       C1072   1.472       .  S
O948       Zr960   2.396       .  S
O949       Zr963   2.389   1_655  S
O949       C2582   1.262       .  A
C950       O2581   1.262       .  A
O951       Zr960   2.437       .  S
O951        C953   1.284       .  A
O952       Zr964   2.430       .  S
O952        C953   1.285       .  A
C953       C1132   1.473       .  S
O954       Zr957   2.457       .  S
O954        C956   1.290       .  A
O955      Zr2595   2.435       .  S
O955        C956   1.287       .  A
C956       C1144   1.475       .  S
Zr957       O958   2.437       .  S
Zr957       O959   2.435       .  S
Zr957       O965   2.392       .  S
Zr957       O966   2.339       .  S
Zr957       O969   2.398       .  S
Zr957       O967   2.330       .  S
O958        H978   0.990       .  S
O958        H983   0.990       .  S
O959        H979   0.990       .  S
Zr960      O2594   2.443       .  S
Zr960      O2602   2.354       .  S
Zr960      O2600   2.401       .  S
O961        H977   0.993       .  S
O962      Zr2592   2.443   1_455  S
O962        H976   0.990       .  S
O962       H2618   0.990   1_455  S
Zr963      O2587   2.427   1_455  S
Zr963      O2598   2.403   1_455  S
Zr963      O2601   2.369   1_455  S
Zr964      O2576   2.423       .  S
Zr964      O2602   2.360       .  S
O965        H973   0.963       .  S
O966      Zr2595   2.404       .  S
O967      Zr2569   2.378       .  S
O968      Zr2592   2.398   1_455  S
O968        H972   0.964       .  S
O969      Zr2569   2.345       .  S
O969      Zr2595   2.369       .  S
O969        H974   0.960       .  S
O970      Zr2592   2.352   1_455  S
O970      Zr2596   2.359   1_455  S
H984       O2571   0.990       .  S
H986       O2594   0.990       .  S
C987        C989   1.548       .  S
C987        C991   1.555       .  S
C987        C990   1.542       .  S
C987       C1036   1.587       .  S
C988        C992   1.543       .  S
C988        C994   1.539       .  S
C988        C993   1.539       .  S
C988       C1045   1.587       .  S
C989        C997   1.376       .  A
C989        C992   1.410       .  A
C990       C1001   1.380       .  A
C990        C993   1.406       .  A
C991       C1005   1.385       .  A
C991        C994   1.412       .  A
C992        C995   1.374       .  A
C993        C999   1.370       .  A
C994       C1002   1.371       .  A
C995        N996   1.354       .  A
C995       H1008   1.081       .  S
N996        C997   1.353       .  A
N996       C1120   1.430       .  S
C997        H998   1.082       .  S
C999       N1000   1.350       .  A
C999       H1009   1.082       .  S
N1000      C1001   1.357       .  A
N1000      C1096   1.426       .  S
C1001      H1007   1.082       .  S
C1002      N1003   1.355       .  A
C1002      H1004   1.083       .  S
N1003      C1005   1.359       .  A
N1003      C1105   1.433       .  S
C1005      H1006   1.081       .  S
C1010      C1012   1.563       .  S
C1010      C1014   1.541       .  S
C1010      C1013   1.550       .  S
C1010      C1048   1.586       .  S
C1011      C1015   1.548       .  S
C1011      C1017   1.534       .  S
C1011      C1016   1.542       .  S
C1011      C1033   1.585       .  S
C1012      C1020   1.383       .  A
C1012      C1015   1.412       .  A
C1013      C1024   1.385       .  A
C1013      C1016   1.406       .  A
C1014      C1028   1.380       .  A
C1014      C1017   1.402       .  A
C1015      C1018   1.375       .  A
C1016      C1022   1.375       .  A
C1017      C1025   1.370       .  A
C1018      N1019   1.359       .  A
C1018      H1031   1.081       .  S
N1019      C1020   1.364       .  A
N1019      C1084   1.450       .  S
C1020      H1021   1.080       .  S
C1022      N1023   1.358       .  A
C1022      H1032   1.083       .  S
N1023      C1024   1.358       .  A
N1023      C1060   1.439       .  S
C1024      H1030   1.081       .  S
C1025      N1026   1.352       .  A
C1025      H1027   1.082       .  S
N1026      C1028   1.356       .  A
N1026      C1069   1.427       .  S
C1028      H1029   1.082       .  S
C1033      C1034   1.412       .  A
C1033      C1038   1.433       .  A
C1034      C1035   1.420       .  A
C1034      H1043   1.081       .  S
C1035      C1036   1.435       .  A
C1035      S1039   1.809       .  S
C1036      C1037   1.414       .  A
C1037      C1038   1.422       .  A
C1037      H1044   1.080       .  S
C1038      S1040   1.807       .  S
S1039      H1042   1.398       .  S
S1040      H1041   1.399       .  S
C1045      C1046   1.414       .  A
C1045      C1050   1.429       .  A
C1046      C1047   1.419       .  A
C1046      H1055   1.082       .  S
C1047      C1456   1.433       .  A
C1047      S1051   1.806       .  S
C1048      C1455   1.434   1_554  A
C1048      C1457   1.417       .  A
C1049      C1456   1.417       .  A
C1049      C1050   1.423       .  A
C1049      H1464   1.080       .  S
C1050      S1052   1.804       .  S
S1051      H1462   1.399       .  S
S1052      H1053   1.403       .  S
H1054      S1459   1.398       .  S
H1056      C1457   1.080       .  S
C1057      C1058   1.411       .  A
C1057      C1062   1.425       .  A
C1058      C1059   1.396       .  A
C1058      H1067   1.084       .  S
C1059      C1060   1.407       .  A
C1059      S1063   1.803       .  S
C1060      C1061   1.401       .  A
C1061      C1062   1.408       .  A
C1061      H1068   1.083       .  S
C1062      S2696   1.799   1_455  S
S1063      H1066   1.407       .  S
S1064      C2694   1.799       .  S
S1064      H1065   1.397       .  S
C1069      C1070   1.400       .  A
C1069      C1074   1.408       .  A
C1070      C1071   1.396       .  A
C1070      H1079   1.084       .  S
C1071      C1072   1.412       .  A
C1071      S1075   1.801       .  S
C1072      C1073   1.404       .  A
C1073      C1074   1.396       .  A
C1073      H1080   1.084       .  S
C1074      S1076   1.802       .  S
S1075      H1078   1.405       .  S
S1076      H1077   1.406       .  S
C1081      C1082   1.409       .  A
C1081      C1086   1.419       .  A
C1082      C1083   1.400       .  A
C1082      H1091   1.084       .  S
C1083      C1084   1.416       .  A
C1083      S1087   1.803       .  S
C1084      C1085   1.408       .  A
C1085      C1086   1.401       .  A
C1085      H1092   1.082       .  S
C1086      S1088   1.804       .  S
S1087      H1090   1.407       .  S
S1088      H2721   1.399       .  S
H1089      S2720   1.397       .  S
C1093      C1094   1.405       .  A
C1093      C1098   1.412       .  A
C1094      C1095   1.398       .  A
C1094      H1103   1.083       .  S
C1095      C1096   1.407       .  A
C1095      S1099   1.803       .  S
C1096      C1097   1.399       .  A
C1097      C1098   1.401       .  A
C1097      H1104   1.083       .  S
C1098      S1100   1.803       .  S
S1099      H1102   1.406       .  S
S1100      H1101   1.406       .  S
C1105      C1106   1.399       .  A
C1105      C1110   1.408       .  A
C1106      C1107   1.405       .  A
C1106      H1115   1.082       .  S
C1107      C1108   1.418       .  A
C1107      S1111   1.805   1_565  S
C1108      C1109   1.409       .  A
C1109      C1110   1.399       .  A
C1109      H1116   1.084       .  S
C1110      S1112   1.803       .  S
S1111      H1114   1.406       .  S
S1112      H1113   1.405       .  S
C1117      C1118   1.406       .  A
C1117      C1122   1.415       .  A
C1118      C1119   1.392       .  A
C1118      H1127   1.084       .  S
C1119      C1120   1.408       .  A
C1119      S1123   1.803       .  S
C1120      C1121   1.402       .  A
C1121      C1122   1.398       .  A
C1121      H1128   1.083       .  S
S1123      H1126   1.407       .  S
S1124      H1125   1.408       .  S
C1129      C1130   1.401       .  A
C1129      C1134   1.411       .  A
C1130      C1131   1.400       .  A
C1130      H1139   1.083       .  S
C1131      C1132   1.414       .  A
C1131      S1135   1.803       .  S
C1132      C1133   1.401       .  A
C1133      C1134   1.396       .  A
C1133      H1140   1.080       .  S
C1134      S1136   1.802       .  S
S1136      H1137   1.407       .  S
C1141      C1142   1.403       .  A
C1141      C1146   1.419       .  A
C1142      C1143   1.394       .  A
C1142      H1151   1.083       .  S
C1143      C1144   1.410       .  A
C1143      S1147   1.800       .  S
C1144      C1145   1.402       .  A
C1145      C1146   1.406       .  A
C1145      H1152   1.083       .  S
C1146      S1148   1.800       .  S
S1147      H1150   1.407       .  S
S1148      H1149   1.408       .  S
C1153      C1154   1.403       .  A
C1153      C1158   1.409       .  A
C1154      C1155   1.397       .  A
C1154      H1163   1.084       .  S
C1155      C1156   1.407       .  A
C1155      S1159   1.802       .  S
C1156      C1157   1.399       .  A
C1157      C1158   1.399       .  A
C1157      H1164   1.083       .  S
C1158      S1160   1.805       .  S
S1159      H1162   1.406       .  S
S1160      H1161   1.407       .  S
C1165      C1166   1.411       .  A
C1165      C1170   1.421       .  A
C1166      C1167   1.398       .  A
C1166      H1175   1.083       .  S
C1167      C1168   1.409       .  A
C1167      S1171   1.803       .  S
C1168      C1169   1.404       .  A
C1169      C1170   1.404       .  A
C1169      H1176   1.084       .  S
C1170      S1172   1.801       .  S
S1171      H1174   1.407       .  S
C1177      C1178   1.407       .  A
C1177      C1590   1.416       .  A
C1178      C1179   1.403       .  A
C1178      H1187   1.084       .  S
C1179      C1180   1.411       .  A
C1179      S1183   1.803       .  S
C1180      C1589   1.400       .  A
C1180      N1241   1.435       .  S
C1181      C1588   1.400       .  A
C1181      C1182   1.401       .  A
C1181      H1188   1.084   1_556  S
C1182      C1585   1.416       .  A
C1182      S1184   1.802       .  S
S1183      H1186   1.404       .  S
S1184      H1185   1.406   1_556  S
C1189      C1598   1.405       .  A
C1189      C1194   1.419       .  A
C1190      C1597   1.406       .  A
C1190      C1191   1.397       .  A
C1190      H1199   1.084       .  S
C1191      C1600   1.410       .  A
C1191      S1195   1.802       .  S
C1192      C1599   1.411       .  A
C1192      C1193   1.399       .  A
C1192      N1238   1.436       .  S
C1193      C1194   1.404       .  A
C1193      H1200   1.083       .  S
C1194      S1196   1.805       .  S
S1195      H1198   1.405       .  S
S1196      H1197   1.407       .  S
C1201      C1202   1.414       .  A
C1201      C1206   1.430       .  A
C1202      C1203   1.420       .  A
C1202      H1211   1.080       .  S
C1203      C1204   1.434       .  A
C1203      S1207   1.808       .  S
C1204      C1205   1.417       .  A
C1205      C1206   1.421       .  A
C1205      H1212   1.079       .  S
C1206      S1208   1.806       .  S
S1207      H1210   1.397       .  S
S1208      H1209   1.399       .  S
C1213      C1214   1.413       .  A
C1213      C1218   1.428       .  A
C1214      C1215   1.421       .  A
C1214      H1223   1.078       .  S
C1215      C1216   1.432       .  A
C1215      S1219   1.807       .  S
C1216      C1217   1.414       .  A
C1217      C1218   1.423       .  A
C1217      H1224   1.079       .  S
C1218      S1220   1.810       .  S
S1219      H1222   1.400       .  S
S1220      H1221   1.406       .  S
C1225      C1227   1.551       .  S
C1225      C1229   1.560       .  S
C1225      C1228   1.541       .  S
C1225      C1621   1.582       .  S
C1226      C1230   1.549       .  S
C1226      C1232   1.532       .  S
C1226      C1231   1.545       .  S
C1226      C1612   1.584       .  S
C1227      C1235   1.380       .  A
C1228      C1239   1.380       .  A
C1229      C1243   1.392       .  A
C1230      C1233   1.379       .  A
C1231      C1237   1.376       .  A
C1232      C1240   1.370       .  A
C1233      N1234   1.357       .  A
C1233      H1246   1.082       .  S
N1234      C1576   1.438       .  S
C1235      H1236   1.082       .  S
C1237      H1247   1.082       .  S
N1238      C1239   1.357       .  A
C1239      H1245   1.082       .  S
C1240      H1242   1.083       .  S
N1241      C1243   1.362       .  A
C1243      H1244   1.080       .  S
C1248      C1250   1.549       .  S
C1248      C1252   1.534       .  S
C1248      C1251   1.544       .  S
C1248      C1624   1.586       .  S
C1249      C1253   1.555       .  S
C1249      C1255   1.551       .  S
C1249      C1254   1.546       .  S
C1249      C1609   1.583       .  S
C1250      C1258   1.379       .  A
C1250      C1253   1.412       .  A
C1251      C1262   1.373       .  A
C1251      C1254   1.404       .  A
C1252      C1266   1.371       .  A
C1252      C1255   1.406       .  A
C1253      C1256   1.382       .  A
C1254      C1260   1.384       .  A
C1255      C1263   1.384       .  A
C1256      N1257   1.357       .  A
C1256      H1269   1.081       .  S
N1257      C1258   1.356       .  A
N1257      C1537   1.437       .  S
C1258      H1259   1.082       .  S
C1260      N1261   1.362       .  A
C1260      H1270   1.082       .  S
N1261      C1262   1.357       .  A
N1261      C1549   1.445       .  S
C1262      H1268   1.081       .  S
C1263      N1264   1.355       .  A
C1263      H1265   1.081       .  S
N1264      C1266   1.353       .  A
N1264      C1564   1.428       .  S
C1266      H1267   1.083       .  S
O1271     Zr1283   2.451   1_565  S
O1271      C1273   1.286       .  A
O1272     Zr1309   2.397       .  S
O1272      C1273   1.280       .  A
C1273      C1525   1.482       .  S
O1274     Zr1286   2.466       .  S
O1274      C1276   1.292       .  A
O1275     Zr2942   2.410   1_455  S
O1275      C1276   1.283       .  A
C1276      C1501   1.477       .  S
O1277     Zr1286   2.441       .  S
O1277      C1279   1.289       .  A
O1278      C1279   1.286       .  A
C1279      C1597   1.487   1_556  S
O1280     Zr1283   2.411       .  S
O1280      C2098   1.268       .  A
O1281     Zr1310   2.374       .  S
O1281      C1282   1.264       .  A
C1282      O2096   1.267       .  A
Zr1283     O2917   2.445   1_545  S
Zr1283     O2947   2.379   1_445  S
Zr1283     O2945   2.311   1_445  S
O1284      H1327   0.991       .  S
O1285     Zr2915   2.445   1_565  S
O1285      H1326   0.990       .  S
O1285      H2962   0.992       .  S
Zr1286     O1287   2.435       .  S
Zr1286     O1288   2.436   1_556  S
Zr1286     O1290   2.348       .  S
Zr1286     O1289   2.393       .  S
Zr1286     O1314   2.354       .  S
Zr1286     O1316   2.386   1_455  S
O1287      H1328   0.989       .  S
O1287      H1331   0.990       .  S
O1288      H1321   0.991   1_554  S
O1290     Zr2942   2.416   1_455  S
O1290      H1317   0.968       .  S
O1291     Zr1303   2.417       .  S
O1291      C1293   1.283       .  A
O1292      C1293   1.288   1_545  A
C1293      C1516   1.485       .  S
O1295      C2928   1.264       .  A
C1296      O2927   1.264       .  A
O1297     Zr1306   2.453       .  S
O1297      C1299   1.287       .  A
O1298     Zr1310   2.414       .  S
O1298      C1299   1.284       .  A
C1299      C1573   1.495       .  S
O1300     Zr1303   2.460       .  S
O1300      C1302   1.290       .  A
O1301     Zr2941   2.418       .  S
O1301      C1302   1.284       .  A
C1302      C1585   1.482       .  S
Zr1303     O1304   2.450       .  S
Zr1303     O1305   2.432       .  S
Zr1303     O1311   2.409       .  S
Zr1303     O1312   2.311       .  S
Zr1303     O1315   2.390       .  S
Zr1303     O1313   2.262       .  S
O1304      H1324   0.992       .  S
O1304      H1329   0.990       .  S
O1305      H1325   0.988       .  S
Zr1306     O2532   2.437   1_556  S
Zr1306     O2948   2.361       .  S
Zr1306     O2946   2.405       .  S
O1307      H1323   0.990       .  S
O1308     Zr2530   2.437       .  S
O1308      H1322   0.989       .  S
O1308      H2964   0.991       .  S
Zr1309     O2933   2.413   1_455  S
Zr1309     O2944   2.389   1_455  S
Zr1309     O2947   2.378   1_455  S
Zr1310     O2907   2.410       .  S
Zr1310     O2922   2.415       .  S
Zr1310     O2948   2.368       .  S
O1311      H1319   0.968       .  S
O1312     Zr2941   2.384       .  S
O1313     Zr2915   2.313   1_565  S
O1314     Zr2938   2.401   1_455  S
O1315     Zr2915   2.381   1_565  S
O1315     Zr2941   2.376       .  S
O1315      H1320   0.968       .  S
O1316     Zr2938   2.361       .  S
O1316     Zr2942   2.364       .  S
H1330      O2917   0.992       .  S
H1332      O2940   0.991       .  S
O1333     Zr1345   2.440       .  S
O1333      C1335   1.287       .  A
O1334     Zr1371   2.426       .  S
O1334      C1335   1.283       .  A
C1335      C1489   1.497       .  S
O1336     Zr1348   2.433       .  S
O1336      C1338   1.288       .  A
O1337     Zr1372   2.441       .  S
O1337      C2970   1.288       .  A
C1338      O2969   1.290       .  A
C1338      C1465   1.497       .  S
O1339     Zr1348   2.439       .  S
O1339      C1341   1.288       .  A
O1340      C1341   1.284       .  A
C1341      C1561   1.470       .  S
O1342     Zr1345   2.362   1_545  S
O1342      C2160   1.263   1_445  A
O1343     Zr1372   2.376       .  S
O1343      C1344   1.265       .  A
C1344      O2158   1.262       .  A
Zr1345     O2979   2.436   1_455  S
Zr1345     O3007   2.374   1_455  S
Zr1345     O3009   2.342   1_455  S
O1346      H1389   0.991       .  S
O1347     Zr2977   2.436       .  S
O1347      H1388   0.988       .  S
O1347      H3024   0.989       .  S
Zr1348     O1349   2.439       .  S
Zr1348     O1350   2.434       .  S
Zr1348     O1352   2.344       .  S
Zr1348     O1351   2.375       .  S
Zr1348     O1376   2.345       .  S
Zr1348     O1378   2.387       .  S
O1349      H1390   0.990       .  S
O1349      H1393   0.989       .  S
O1350      H1383   0.989       .  S
O1352     Zr3004   2.421   1_455  S
O1352      H1379   0.969       .  S
O1353     Zr1365   2.460       .  S
O1353      C1355   1.292       .  A
O1354      C1355   1.284       .  A
C1355      C1480   1.473       .  S
O1356     Zr1368   2.392       .  S
O1357     Zr1371   2.391   1_655  S
O1357      C2990   1.262       .  A
C1358      O2989   1.262       .  A
O1359     Zr1368   2.438       .  S
O1359      C1361   1.284       .  A
O1360     Zr1372   2.436       .  S
O1360      C1361   1.286       .  A
C1361      C1540   1.478       .  S
O1362     Zr1365   2.461       .  S
O1362      C1364   1.291       .  A
O1363     Zr3003   2.435       .  S
O1363      C1364   1.287       .  A
C1364      C1552   1.478       .  S
Zr1365     O1366   2.435       .  S
Zr1365     O1367   2.434       .  S
Zr1365     O1373   2.390       .  S
Zr1365     O1374   2.338       .  S
Zr1365     O1377   2.395       .  S
Zr1365     O1375   2.330       .  S
O1366      H1386   0.989       .  S
O1366      H1391   0.991       .  S
O1367      H1387   0.989       .  S
Zr1368     O3002   2.444       .  S
Zr1368     O3010   2.351       .  S
Zr1368     O3008   2.398       .  S
O1369      H1385   0.990       .  S
O1370     Zr3000   2.444   1_455  S
O1370      H1384   0.989       .  S
O1370      H3026   0.990       .  S
Zr1371     O2995   2.426   1_455  S
Zr1371     O3006   2.405   1_455  S
Zr1371     O3009   2.370   1_455  S
Zr1372     O2984   2.426       .  S
Zr1372     O3010   2.358       .  S
O1373      H1381   0.962       .  S
O1374     Zr3003   2.407       .  S
O1375     Zr2977   2.375       .  S
O1376     Zr3000   2.398   1_455  S
O1376      H1380   0.966       .  S
O1377     Zr2977   2.344       .  S
O1377     Zr3003   2.370       .  S
O1377      H1382   0.960       .  S
O1378     Zr3000   2.353   1_455  S
O1378     Zr3004   2.362   1_455  S
H1392      O2979   0.991       .  S
H1394      O3002   0.989       .  S
C1395      C1397   1.549       .  S
C1395      C1399   1.553       .  S
C1395      C1398   1.539       .  S
C1395      C1444   1.584       .  S
C1396      C1400   1.545       .  S
C1396      C1402   1.541       .  S
C1396      C1401   1.541       .  S
C1396      C1453   1.588       .  S
C1397      C1405   1.378       .  A
C1397      C1400   1.409       .  A
C1398      C1409   1.378       .  A
C1398      C1401   1.406       .  A
C1399      C1413   1.385       .  A
C1399      C1402   1.412       .  A
C1400      C1403   1.376       .  A
C1401      C1407   1.371       .  A
C1402      C1410   1.372       .  A
C1403      N1404   1.355       .  A
C1403      H1416   1.081       .  S
N1404      C1405   1.355       .  A
N1404      C1528   1.435       .  S
C1405      H1406   1.082       .  S
C1407      N1408   1.351       .  A
C1407      H1417   1.081       .  S
N1408      C1409   1.356       .  A
N1408      C1504   1.426       .  S
C1409      H1415   1.082       .  S
C1410      N1411   1.356       .  A
C1410      H1412   1.083       .  S
N1411      C1413   1.357       .  A
N1411      C1513   1.433       .  S
C1413      H1414   1.081       .  S
C1418      C1420   1.561       .  S
C1418      C1422   1.543       .  S
C1418      C1421   1.548       .  S
C1418      C1456   1.585       .  S
C1419      C1423   1.548       .  S
C1419      C1425   1.535       .  S
C1419      C1424   1.541       .  S
C1419      C1441   1.582       .  S
C1420      C1428   1.383       .  A
C1420      C1423   1.410       .  A
C1421      C1432   1.384       .  A
C1421      C1424   1.406       .  A
C1422      C1436   1.380       .  A
C1422      C1425   1.402       .  A
C1423      C1426   1.376       .  A
C1424      C1430   1.375       .  A
C1425      C1433   1.371       .  A
C1426      N1427   1.359       .  A
C1426      H1439   1.081       .  S
N1427      C1428   1.365       .  A
N1427      C1492   1.452       .  S
C1428      H1429   1.080       .  S
C1430      N1431   1.357       .  A
C1430      H1440   1.082       .  S
N1431      C1432   1.357       .  A
N1431      C1468   1.436       .  S
C1432      H1438   1.081       .  S
C1433      N1434   1.352       .  A
C1433      H1435   1.082       .  S
N1434      C1436   1.357       .  A
N1434      C1477   1.427       .  S
C1436      H1437   1.082       .  S
C1441      C1442   1.412       .  A
C1441      C1446   1.432       .  A
C1442      C1443   1.419       .  A
C1442      H1451   1.081       .  S
C1443      C1444   1.434       .  A
C1443      S1447   1.808       .  S
C1444      C1445   1.414       .  A
C1445      C1446   1.421       .  A
C1445      H1452   1.079       .  S
C1446      S1448   1.808       .  S
S1447      H1450   1.397       .  S
S1448      H1449   1.399       .  S
C1453      C1454   1.413       .  A
C1453      C1458   1.429       .  A
C1454      C1455   1.420       .  A
C1454      H1463   1.082       .  S
C1455      S1459   1.807   1_556  S
C1457      C1458   1.424   1_554  A
C1458      S1460   1.804       .  S
S1460      H1461   1.403       .  S
C1465      C1466   1.410       .  A
C1465      C1470   1.422       .  A
C1466      C1467   1.396       .  A
C1466      H1475   1.084       .  S
C1467      C1468   1.407       .  A
C1467      S1471   1.804       .  S
C1468      C1469   1.400       .  A
C1469      C1470   1.406       .  A
C1469      H1476   1.083       .  S
C1470      S3104   1.798   1_455  S
S1471      H1474   1.406       .  S
S1472      C3102   1.799       .  S
S1472      H1473   1.397       .  S
C1477      C1478   1.401       .  A
C1477      C1482   1.407       .  A
C1478      C1479   1.397       .  A
C1478      H1487   1.084       .  S
C1479      C1480   1.412       .  A
C1479      S1483   1.802       .  S
C1480      C1481   1.405       .  A
C1481      C1482   1.396       .  A
C1481      H1488   1.084       .  S
C1482      S1484   1.802       .  S
S1483      H1486   1.406       .  S
S1484      H1485   1.406       .  S
C1489      C1490   1.410       .  A
C1489      C1494   1.421       .  A
C1490      C1491   1.399       .  A
C1490      H1499   1.084       .  S
C1491      C1492   1.416       .  A
C1491      S1495   1.803       .  S
C1492      C1493   1.409       .  A
C1493      C1494   1.403       .  A
C1493      H1500   1.082       .  S
C1494      S1496   1.805       .  S
S1495      H1498   1.408       .  S
S1496      H3129   1.398       .  S
H1497      S3128   1.398       .  S
C1501      C1502   1.405       .  A
C1501      C1506   1.413       .  A
C1502      C1503   1.397       .  A
C1502      H1511   1.083       .  S
C1503      C1504   1.405       .  A
C1503      S1507   1.802       .  S
C1504      C1505   1.399       .  A
C1505      C1506   1.401       .  A
C1505      H1512   1.082       .  S
C1506      S1508   1.805       .  S
S1507      H1510   1.406       .  S
S1508      H1509   1.407       .  S
C1513      C1514   1.398       .  A
C1513      C1518   1.409       .  A
C1514      C1515   1.402       .  A
C1514      H1523   1.082       .  S
C1515      C1516   1.416       .  A
C1515      S1519   1.804   1_565  S
C1516      C1517   1.408       .  A
C1517      C1518   1.399       .  A
C1517      H1524   1.084       .  S
C1518      S1520   1.803       .  S
S1519      H1522   1.407       .  S
S1520      H1521   1.405       .  S
C1525      C1526   1.407       .  A
C1525      C1530   1.415       .  A
C1526      C1527   1.395       .  A
C1526      H1535   1.084       .  S
C1527      C1528   1.411       .  A
C1527      S1531   1.803       .  S
C1528      C1529   1.403       .  A
C1529      C1530   1.400       .  A
C1529      H1536   1.083       .  S
S1531      H1534   1.407       .  S
S1532      H1533   1.408       .  S
C1537      C1538   1.402       .  A
C1537      C1542   1.412       .  A
C1538      C1539   1.403       .  A
C1538      H1547   1.083       .  S
C1539      C1540   1.415       .  A
C1539      S1543   1.804       .  S
C1540      C1541   1.402       .  A
C1541      C1542   1.398       .  A
C1541      H1548   1.080       .  S
C1542      S1544   1.802       .  S
S1544      H1545   1.407       .  S
C1549      C1550   1.404       .  A
C1549      C1554   1.419       .  A
C1550      C1551   1.396       .  A
C1550      H1559   1.083       .  S
C1551      C1552   1.411       .  A
C1551      S1555   1.800       .  S
C1552      C1553   1.402       .  A
C1553      C1554   1.407       .  A
C1553      H1560   1.084       .  S
C1554      S1556   1.800       .  S
S1555      H1558   1.406       .  S
S1556      H1557   1.407       .  S
C1561      C1562   1.404       .  A
C1561      C1566   1.410       .  A
C1562      C1563   1.399       .  A
C1562      H1571   1.084       .  S
C1563      C1564   1.408       .  A
C1563      S1567   1.802       .  S
C1564      C1565   1.399       .  A
C1565      C1566   1.399       .  A
C1565      H1572   1.082       .  S
C1566      S1568   1.807       .  S
S1567      H1570   1.406       .  S
S1568      H1569   1.406       .  S
C1573      C1574   1.409       .  A
C1573      C1578   1.420       .  A
C1574      C1575   1.397       .  A
C1574      H1583   1.083       .  S
C1575      C1576   1.409       .  A
C1575      S1579   1.803       .  S
C1576      C1577   1.403       .  A
C1577      C1578   1.404       .  A
C1577      H1584   1.084   1_556  S
C1578      S1580   1.802   1_556  S
S1579      H1582   1.407       .  S
C1585      C1586   1.405       .  A
C1586      C1587   1.400       .  A
C1586      H1595   1.084       .  S
C1587      C1588   1.409       .  A
C1587      S1591   1.802       .  S
C1589      C1590   1.401       .  A
C1589      H1596   1.084       .  S
C1590      S1592   1.802       .  S
S1591      H1594   1.404       .  S
S1592      H1593   1.407       .  S
C1597      C1602   1.419   1_554  A
C1598      C1599   1.399       .  A
C1598      H1607   1.084       .  S
C1599      S1603   1.801       .  S
C1600      C1601   1.399       .  A
C1601      C1602   1.404   1_554  A
C1601      H1608   1.083   1_554  S
C1602      S1604   1.805       .  S
S1603      H1606   1.406       .  S
S1604      H1605   1.407       .  S
C1609      C1610   1.414       .  A
C1609      C1614   1.429       .  A
C1610      C1611   1.419       .  A
C1610      H1619   1.080       .  S
C1611      C1612   1.433       .  A
C1611      S1615   1.808       .  S
C1612      C1613   1.417       .  A
C1613      C1614   1.420       .  A
C1613      H1620   1.079       .  S
C1614      S1616   1.806       .  S
S1615      H1618   1.397       .  S
S1616      H1617   1.399       .  S
C1621      C1622   1.412       .  A
C1621      C1626   1.429       .  A
C1622      C1623   1.421       .  A
C1622      H1631   1.078       .  S
C1623      C1624   1.432       .  A
C1623      S1627   1.806       .  S
C1624      C1625   1.414       .  A
C1625      C1626   1.424       .  A
C1625      H1632   1.079       .  S
C1626      S1628   1.810       .  S
S1627      H1630   1.400       .  S
S1628      H1629   1.406       .  S
C1633      C1635   1.549       .  S
C1633      C1637   1.557       .  S
C1633      C1636   1.539       .  S
C1633      C2029   1.580       .  S
C1634      C1638   1.551       .  S
C1634      C1640   1.531       .  S
C1634      C1639   1.545       .  S
C1634      C2020   1.586       .  S
C1635      C1643   1.378       .  A
C1635      C2046   1.410   1_554  A
C1636      C1647   1.379       .  A
C1636      C2047   1.406   1_554  A
C1637      C1651   1.389       .  A
C1637      C2048   1.407   1_554  A
C1638      C2043   1.410       .  A
C1638      C1641   1.380       .  A
C1639      C2044   1.406       .  A
C1639      C1645   1.375       .  A
C1640      C2045   1.408       .  A
C1640      C1648   1.369       .  A
C1641      N1642   1.358       .  A
C1641      H1654   1.082       .  S
N1642      C2051   1.356       .  A
N1642      C1984   1.438       .  S
C1643      N2050   1.355   1_554  A
C1643      H1644   1.082       .  S
C1645      N2054   1.357       .  A
C1645      H1655   1.082       .  S
N1646      C2053   1.357   1_554  A
N1646      C1647   1.356       .  A
N1646      C2416   1.434       .  S
C1647      H1653   1.082       .  S
C1648      N2057   1.349       .  A
C1648      H1650   1.083       .  S
N1649      C2056   1.349       .  A
N1649      C1651   1.360   1_556  A
N1649      C2404   1.430       .  S
C1651      H1652   1.081       .  S
C1656      C1658   1.545       .  S
C1656      C1660   1.532       .  S
C1656      C1659   1.540       .  S
C1656      C2032   1.584       .  S
C1657      C1661   1.554       .  S
C1657      C1663   1.551       .  S
C1657      C1662   1.544       .  S
C1657      C2017   1.584       .  S
C1658      C1666   1.376       .  A
C1658      C1661   1.413       .  A
C1659      C1670   1.369       .  A
C1659      C1662   1.404       .  A
C1660      C1674   1.368       .  A
C1660      C1663   1.407       .  A
C1661      C1664   1.380       .  A
C1662      C1668   1.382       .  A
C1663      C1671   1.383       .  A
C1664      N1665   1.357       .  A
C1664      H1677   1.081       .  S
N1665      C1666   1.354       .  A
N1665      C1945   1.433       .  S
C1666      H1667   1.082       .  S
C1668      N1669   1.361       .  A
C1668      H1678   1.082       .  S
N1669      C1670   1.356       .  A
N1669      C1957   1.442       .  S
C1670      H1676   1.081       .  S
C1671      N1672   1.355       .  A
C1671      H1673   1.081       .  S
N1672      C1674   1.352       .  A
N1672      C1972   1.425       .  S
C1674      H1675   1.083       .  S
O1679     Zr1691   2.445       .  S
O1679      C1681   1.285       .  A
O1680     Zr1717   2.393       .  S
O1680      C1681   1.279       .  A
C1681      C1933   1.474       .  S
O1682     Zr1694   2.457       .  S
O1682      C1684   1.290       .  A
O1683      C1684   1.284       .  A
C1684      C1909   1.473       .  S
O1685     Zr1694   2.440       .  S
O1685      C1687   1.288       .  A
O1686     Zr2533   2.431   1_545  S
O1686      C1687   1.287       .  A
C1687      C2005   1.486       .  S
O1688     Zr1691   2.405       .  S
O1689     Zr1718   2.378   1_455  S
O1689      C1690   1.264       .  A
C1690      C2582   1.441   1_445  S
Zr1691     O2508   2.444       .  S
Zr1691     O2513   2.349       .  S
Zr1691     O2514   2.394       .  S
O1692     Zr2507   2.445       .  S
O1692      H1735   0.988       .  S
O1693      H1734   0.989       .  S
Zr1694     O1695   2.435       .  S
Zr1694     O1696   2.438       .  S
Zr1694     O1698   2.352       .  S
Zr1694     O1697   2.396       .  S
Zr1694     O1722   2.351       .  S
Zr1694     O1724   2.387       .  S
O1695      H1736   0.988       .  S
O1695      H1739   0.991       .  S
O1696      H1729   0.990       .  S
O1697     Zr2507   2.350       .  S
O1697     Zr2533   2.382   1_545  S
O1698     Zr2507   2.390       .  S
O1698      H1725   0.969       .  S
O1699     Zr1711   2.425       .  S
O1699      C1701   1.284       .  A
O1700     Zr2534   2.444       .  S
O1700      C1701   1.288       .  A
C1701      C1924   1.485       .  S
O1702     Zr2122   2.426   1_564  S
O1702      C2520   1.269       .  A
O1703     Zr2125   2.383   1_554  S
C1704      O2518   1.269       .  A
C1704      C2568   1.414       .  S
O1705     Zr1714   2.453       .  S
O1705      C1707   1.287       .  A
O1706     Zr1718   2.414       .  S
O1706      C1707   1.284       .  A
C1707      C1981   1.496       .  S
O1708     Zr1711   2.465       .  S
O1708      C1710   1.291       .  A
O1709      C1710   1.283       .  A
C1710      C1993   1.482       .  S
Zr1711     O1712   2.450       .  S
Zr1711     O1713   2.433       .  S
Zr1711     O1719   2.412       .  S
Zr1711     O1720   2.319       .  S
Zr1711     O1723   2.388       .  S
Zr1711     O1721   2.259       .  S
O1712      H1732   0.992       .  S
O1712      H1737   0.991       .  S
O1713      H1733   0.991       .  S
Zr1714     O2110   2.429   1_545  S
Zr1714     O2939   2.428   1_545  S
Zr1714     O2536   2.379   1_545  S
Zr1714     O2535   2.366   1_545  S
O1715     Zr2938   2.429   1_554  S
O1715      H1731   0.991       .  S
O1716      H1730   0.989       .  S
Zr1717     O2502   2.434       .  S
Zr1717     O2111   2.379       .  S
Zr1717     O2513   2.379       .  S
Zr1717     O2538   2.433       .  S
Zr1718     O2516   2.439       .  S
Zr1718     O2535   2.374   1_545  S
Zr1718     O2537   2.293   1_545  S
O1719     Zr2530   2.362       .  S
O1719     Zr2534   2.372       .  S
O1719      H1727   0.968       .  S
O1720     Zr2530   2.382       .  S
O1721     Zr2534   2.292       .  S
O1722     Zr2533   2.437   1_545  S
O1722      H2134   0.966       .  S
O1723      H1728   0.968       .  S
H1726      O2130   0.962   1_554  S
O1741     Zr1753   2.444       .  S
O1741      C1743   1.288       .  A
O1742     Zr1779   2.426       .  S
O1742      C1743   1.284       .  A
C1743      C1897   1.497       .  S
O1744     Zr1756   2.441       .  S
O1744      C1746   1.289       .  A
O1745     Zr1780   2.442   1_455  S
C1746      C1873   1.504       .  S
O1747     Zr1756   2.435       .  S
O1747      C1749   1.287       .  A
O1748     Zr2595   2.417   1_545  S
O1748      C1749   1.284       .  A
C1749      C1969   1.467       .  S
O1750     Zr1753   2.363       .  S
O1751     Zr1780   2.379   1_565  S
O1751      C1752   1.265       .  A
C1752      C2520   1.414       .  S
Zr1753     O2570   2.430       .  S
Zr1753     O2575   2.341       .  S
Zr1753     O2576   2.413       .  S
O1754     Zr2569   2.430       .  S
O1754      H1797   0.990   1_565  S
O1755      H1796   0.989       .  S
Zr1756     O1757   2.439       .  S
Zr1756     O1758   2.434       .  S
Zr1756     O1760   2.346       .  S
Zr1756     O1759   2.383       .  S
Zr1756     O1784   2.348       .  S
Zr1756     O1786   2.383       .  S
O1757      H1798   0.989       .  S
O1757      H1801   0.990       .  S
O1758      H1791   0.989       .  S
O1759     Zr2569   2.338   1_545  S
O1759     Zr2595   2.380   1_545  S
O1760     Zr2569   2.413   1_545  S
O1760      H1787   0.966       .  S
O1761     Zr1773   2.457       .  S
O1761      C1763   1.292       .  A
O1762     Zr2596   2.400       .  S
O1762      C1763   1.284       .  A
C1763      C1888   1.468       .  S
O1764     Zr1776   2.394   1_565  S
O1764      C2582   1.267       .  A
O1765     Zr1779   2.393       .  S
C1766      O2580   1.266       .  A
C1766      C2506   1.443   1_655  S
O1767     Zr1776   2.441       .  S
O1767      C1769   1.285       .  A
O1768     Zr1780   2.427       .  S
O1768      C1769   1.284       .  A
C1769      C1948   1.473       .  S
O1770     Zr1773   2.458       .  S
O1770      C1772   1.290       .  A
O1771      C1772   1.286       .  A
C1772      C1960   1.473       .  S
Zr1773     O1774   2.435       .  S
Zr1773     O1775   2.435       .  S
Zr1773     O1781   2.394       .  S
Zr1773     O1782   2.339       .  S
Zr1773     O1785   2.394       .  S
Zr1773     O1783   2.331       .  S
O1774      H1794   0.990       .  S
O1774      H1799   0.990       .  S
O1775      H1795   0.992       .  S
Zr1776     O2593   2.432       .  S
Zr1776     O2598   2.402   1_545  S
Zr1776     O2597   2.360   1_545  S
O1777     Zr2592   2.430       .  S
O1777      H1793   0.992       .  S
O1778      H1792   0.990       .  S
Zr1779     O2564   2.428       .  S
Zr1779     O2575   2.379       .  S
Zr1779     O2600   2.430       .  S
Zr1780     O2578   2.407   1_545  S
Zr1780     O2597   2.378   1_545  S
Zr1780     O2599   2.397   1_545  S
O1781     Zr2592   2.356       .  S
O1781     Zr2596   2.378       .  S
O1781      H1789   0.963       .  S
O1782     Zr2592   2.402       .  S
O1783     Zr2596   2.401       .  S
O1784     Zr2595   2.431   1_545  S
O1784      H1788   0.960       .  S
O1785      H1790   0.963       .  S
C1803      C1805   1.547       .  S
C1803      C1807   1.554       .  S
C1803      C1806   1.542       .  S
C1803      C1852   1.586       .  S
C1804      C1808   1.543       .  S
C1804      C1810   1.540       .  S
C1804      C1809   1.537       .  S
C1804      C1861   1.587       .  S
C1805      C1813   1.375       .  A
C1805      C1808   1.411       .  A
C1806      C1817   1.379       .  A
C1806      C1809   1.406       .  A
C1807      C1821   1.385       .  A
C1807      C1810   1.412       .  A
C1808      C1811   1.374       .  A
C1809      C1815   1.369       .  A
C1810      C1818   1.370       .  A
C1811      N1812   1.354       .  A
C1811      H1824   1.081       .  S
N1812      C1813   1.353       .  A
N1812      C1936   1.429       .  S
C1813      H1814   1.082       .  S
C1815      N1816   1.349       .  A
C1815      H1825   1.082       .  S
N1816      C1817   1.357       .  A
N1816      C1912   1.424       .  S
C1817      H1823   1.082       .  S
C1818      N1819   1.355       .  A
C1818      H1820   1.083       .  S
N1819      C1821   1.358       .  A
N1819      C1921   1.434       .  S
C1821      H1822   1.081       .  S
C1826      C1828   1.564       .  S
C1826      C1830   1.541       .  S
C1826      C1829   1.551       .  S
C1826      C1864   1.586       .  S
C1827      C1831   1.549       .  S
C1827      C1833   1.533       .  S
C1827      C1832   1.544       .  S
C1827      C1849   1.585       .  S
C1828      C1836   1.385       .  A
C1828      C1831   1.412       .  A
C1829      C1840   1.386       .  A
C1829      C1832   1.406       .  A
C1830      C1844   1.379       .  A
C1830      C1833   1.402       .  A
C1831      C1834   1.377       .  A
C1832      C1838   1.377       .  A
C1833      C1841   1.369       .  A
C1834      N1835   1.359       .  A
C1834      H1847   1.081       .  S
N1835      C1836   1.365       .  A
N1835      C1900   1.453       .  S
C1836      H1837   1.080       .  S
C1838      N1839   1.359       .  A
C1838      H1848   1.082       .  S
N1839      C1840   1.358       .  A
N1839      C1876   1.440       .  S
C1840      H1846   1.081       .  S
C1841      N1842   1.352       .  A
C1841      H1843   1.082       .  S
N1842      C1844   1.356       .  A
N1842      C1885   1.426       .  S
C1844      H1845   1.082       .  S
C1849      C1850   1.412       .  A
C1849      C1854   1.433       .  A
C1850      C1851   1.420       .  A
C1850      H1859   1.081       .  S
C1851      C1852   1.435       .  A
C1851      S1855   1.808       .  S
C1852      C1853   1.414       .  A
C1853      C1854   1.422       .  A
C1853      H1860   1.080       .  S
C1854      S1856   1.807       .  S
S1855      H1858   1.398       .  S
S1856      H1857   1.399       .  S
C1861      C1862   1.413       .  A
C1861      C1866   1.428       .  A
C1862      C1863   1.419       .  A
C1862      H1871   1.082       .  S
C1863      C2272   1.434       .  A
C1863      S1867   1.807       .  S
C1864      C2271   1.433   1_554  A
C1864      C2273   1.417       .  A
C1865      C2272   1.417       .  A
C1865      C1866   1.423       .  A
C1865      H2280   1.080       .  S
C1866      S1868   1.804       .  S
S1867      H2278   1.398       .  S
S1868      H1869   1.404       .  S
H1870      S2275   1.398       .  S
H1872      C2273   1.080       .  S
C1873      C1874   1.411       .  A
C1873      C1878   1.424       .  A
C1874      C1875   1.399       .  A
C1874      H1883   1.084       .  S
C1875      C1876   1.407       .  A
C1875      S1879   1.803       .  S
C1876      C1877   1.401       .  A
C1877      C1878   1.409       .  A
C1877      H1884   1.083       .  S
S1879      H1882   1.406       .  S
S1880      H1881   1.397       .  S
C1885      C1886   1.401       .  A
C1885      C1890   1.408       .  A
C1886      C1887   1.396       .  A
C1886      H1895   1.084       .  S
C1887      C1888   1.411       .  A
C1887      S1891   1.802       .  S
C1888      C1889   1.404       .  A
C1889      C1890   1.395       .  A
C1889      H1896   1.084       .  S
C1890      S1892   1.802       .  S
S1891      H1894   1.405       .  S
S1892      H1893   1.406       .  S
C1897      C1898   1.410       .  A
C1897      C1902   1.421       .  A
C1898      C1899   1.400       .  A
C1898      H1907   1.084       .  S
C1899      C1900   1.416       .  A
C1899      S1903   1.802       .  S
C1900      C1901   1.409       .  A
C1901      C1902   1.403       .  A
C1901      H1908   1.082       .  S
C1902      S1904   1.805       .  S
S1903      H1906   1.407       .  S
C1909      C1910   1.404       .  A
C1909      C1914   1.413       .  A
C1910      C1911   1.397       .  A
C1910      H1919   1.083       .  S
C1911      C1912   1.406       .  A
C1911      S1915   1.802       .  S
C1912      C1913   1.398       .  A
C1913      C1914   1.400       .  A
C1913      H1920   1.083       .  S
C1914      S1916   1.805       .  S
S1915      H1918   1.406       .  S
S1916      H1917   1.407       .  S
C1921      C1922   1.399       .  A
C1921      C1926   1.409       .  A
C1922      C1923   1.403       .  A
C1922      H1931   1.082       .  S
C1923      C1924   1.417       .  A
C1923      S1927   1.804       .  S
C1924      C1925   1.407       .  A
C1925      C1926   1.399       .  A
C1925      H1932   1.084       .  S
C1926      S1928   1.802       .  S
S1927      H1930   1.407       .  S
S1928      H1929   1.406       .  S
C1933      C1934   1.406       .  A
C1933      C1938   1.414       .  A
C1934      C1935   1.393       .  A
C1934      H1943   1.084       .  S
C1935      C1936   1.409       .  A
C1935      S1939   1.803       .  S
C1936      C1937   1.401       .  A
C1937      C1938   1.397       .  A
C1937      H1944   1.083       .  S
C1938      S2756   1.803       .  S
S1939      H1942   1.407       .  S
S1940      C2754   1.803       .  S
S1940      H1941   1.407   1_565  S
C1945      C1946   1.401       .  A
C1945      C1950   1.411       .  A
C1946      C1947   1.400       .  A
C1946      H1955   1.083       .  S
C1947      C1948   1.413       .  A
C1947      S1951   1.803       .  S
C1948      C1949   1.402       .  A
C1949      C1950   1.398       .  A
C1949      H1956   1.081       .  S
C1950      S1952   1.803       .  S
S1951      H2770   1.405   1_545  S
S1952      H1953   1.406       .  S
H1954      S2767   1.405       .  S
C1957      C1958   1.403       .  A
C1957      C1962   1.419       .  A
C1958      C1959   1.393       .  A
C1958      H1967   1.083       .  S
C1959      C1960   1.410       .  A
C1959      S1963   1.801       .  S
C1960      C1961   1.402       .  A
C1961      C1962   1.406       .  A
C1961      H1968   1.084       .  S
C1962      S1964   1.800       .  S
S1963      H1966   1.407       .  S
S1964      H1965   1.408       .  S
C1969      C1970   1.403       .  A
C1969      C1974   1.410       .  A
C1970      C1971   1.397       .  A
C1970      H1979   1.084       .  S
C1971      C1972   1.407       .  A
C1971      S1975   1.802       .  S
C1972      C1973   1.399       .  A
C1973      C1974   1.399       .  A
C1973      H1980   1.083       .  S
C1974      S1976   1.806       .  S
S1975      H1978   1.406       .  S
S1976      H1977   1.407       .  S
C1981      C1982   1.410       .  A
C1981      C1986   1.420       .  A
C1982      C1983   1.397       .  A
C1982      H1991   1.083       .  S
C1983      C1984   1.408       .  A
C1983      S1987   1.802       .  S
C1984      C1985   1.404       .  A
C1985      C1986   1.404       .  A
C1985      H1992   1.084       .  S
C1986      S1988   1.802       .  S
S1987      H1990   1.407       .  S
S1988      H2805   1.408       .  S
H1989      S2804   1.408       .  S
C1993      C1994   1.407       .  A
C1993      C2406   1.415       .  A
C1994      C1995   1.401       .  A
C1994      H2003   1.084       .  S
C1995      C1996   1.409       .  A
C1995      S1999   1.802       .  S
C1996      C2405   1.399       .  A
C1996      N2057   1.431       .  S
C1997      C2404   1.399       .  A
C1997      C1998   1.399       .  A
C1997      H2004   1.084   1_556  S
C1998      C2401   1.416       .  A
C1998      S2000   1.801       .  S
S1999      H2002   1.405       .  S
S2000      H2001   1.406   1_556  S
C2005      C2414   1.406       .  A
C2005      C2010   1.418       .  A
C2006      C2413   1.406       .  A
C2006      C2007   1.398       .  A
C2006      H2015   1.084       .  S
C2007      C2416   1.411       .  A
C2007      S2011   1.802       .  S
C2008      C2415   1.411       .  A
C2008      C2009   1.398       .  A
C2008      N2054   1.435       .  S
C2009      C2010   1.402       .  A
C2009      H2016   1.082       .  S
C2010      S2012   1.805   1_545  S
S2011      H2014   1.405       .  S
S2012      H2013   1.407       .  S
C2017      C2018   1.414       .  A
C2017      C2022   1.430       .  A
C2018      C2019   1.420       .  A
C2018      H2027   1.080       .  S
C2019      C2020   1.434       .  A
C2019      S2023   1.808       .  S
C2020      C2021   1.416       .  A
C2021      C2022   1.421       .  A
C2021      H2028   1.080       .  S
C2022      S2024   1.807       .  S
S2023      H2026   1.397       .  S
S2024      H2025   1.398       .  S
C2029      C2030   1.412       .  A
C2029      C2034   1.428       .  A
C2030      C2031   1.420       .  A
C2030      H2039   1.078       .  S
C2031      C2032   1.432       .  A
C2031      S2035   1.807       .  S
C2032      C2033   1.414       .  A
C2033      C2034   1.422       .  A
C2033      H2040   1.080       .  S
C2034      S2036   1.809       .  S
S2035      H2038   1.401       .  S
S2036      H2037   1.407       .  S
C2041      C2043   1.550       .  S
C2041      C2045   1.558       .  S
C2041      C2044   1.541       .  S
C2041      C2437   1.583       .  S
C2042      C2046   1.551       .  S
C2042      C2048   1.532       .  S
C2042      C2047   1.547       .  S
C2042      C2428   1.584       .  S
C2043      C2051   1.379       .  A
C2044      C2055   1.380       .  A
C2045      C2059   1.389       .  A
C2046      C2049   1.380       .  A
C2047      C2053   1.377       .  A
C2048      C2056   1.369       .  A
C2049      N2050   1.357       .  A
C2049      H2062   1.082       .  S
N2050      C2392   1.436       .  S
C2051      H2052   1.082       .  S
C2053      H2063   1.081       .  S
N2054      C2055   1.357       .  A
C2055      H2061   1.082       .  S
C2056      H2058   1.083       .  S
N2057      C2059   1.360       .  A
C2059      H2060   1.080       .  S
C2064      C2066   1.547       .  S
C2064      C2068   1.533       .  S
C2064      C2067   1.542       .  S
C2064      C2440   1.587       .  S
C2065      C2069   1.552       .  S
C2065      C2071   1.551       .  S
C2065      C2070   1.543       .  S
C2065      C2425   1.582       .  S
C2066      C2074   1.376       .  A
C2066      C2069   1.413       .  A
C2067      C2078   1.369       .  A
C2067      C2070   1.405       .  A
C2068      C2082   1.369       .  A
C2068      C2071   1.407       .  A
C2069      C2072   1.379       .  A
C2070      C2076   1.382       .  A
C2071      C2079   1.383       .  A
C2072      N2073   1.356       .  A
C2072      H2085   1.082       .  S
N2073      C2074   1.355       .  A
N2073      C2353   1.432       .  S
C2074      H2075   1.082       .  S
C2076      N2077   1.360       .  A
C2076      H2086   1.082       .  S
N2077      C2078   1.357       .  A
N2077      C2365   1.441       .  S
C2078      H2084   1.081       .  S
C2079      N2080   1.355       .  A
C2079      H2081   1.081       .  S
N2080      C2082   1.352       .  A
N2080      C2380   1.426       .  S
C2082      H2083   1.083       .  S
O2087     Zr2099   2.438       .  S
O2087      C2089   1.283       .  A
O2088     Zr2125   2.400       .  S
O2088      C2089   1.280       .  A
C2089      C2341   1.477       .  S
O2090     Zr2102   2.468       .  S
O2090      C2092   1.292       .  A
O2091      C2092   1.284       .  A
C2092      C2317   1.478       .  S
O2093     Zr2102   2.442       .  S
O2093      C2095   1.289       .  A
O2094     Zr2941   2.428   1_545  S
O2094      C2095   1.287       .  A
C2095      C2413   1.486   1_556  S
O2096     Zr2099   2.406       .  S
O2097     Zr2126   2.375       .  S
O2097      C2098   1.264   1_655  A
C2098      C2990   1.441   1_445  S
Zr2099     O2916   2.444       .  S
Zr2099     O2921   2.349       .  S
Zr2099     O2922   2.387       .  S
O2100     Zr2915   2.445       .  S
O2100      H2143   0.990       .  S
O2101      H2142   0.988       .  S
Zr2102     O2103   2.436       .  S
Zr2102     O2104   2.437   1_556  S
Zr2102     O2106   2.351       .  S
Zr2102     O2105   2.398       .  S
Zr2102     O2130   2.354       .  S
Zr2102     O2132   2.385       .  S
O2103      H2144   0.988       .  S
O2103      H2147   0.991       .  S
O2104      H2137   0.990       .  S
O2105     Zr2915   2.348       .  S
O2105     Zr2941   2.382   1_545  S
O2106     Zr2915   2.393       .  S
O2106      H2133   0.968       .  S
O2107     Zr2119   2.421       .  S
O2107      C2109   1.283       .  A
O2108     Zr2942   2.440       .  S
O2108      C2109   1.287       .  A
C2109      C2332   1.484       .  S
O2110      C2928   1.270       .  A
C2112      O2926   1.269       .  A
C2112      C2976   1.414       .  S
O2113     Zr2122   2.451       .  S
O2113      C2115   1.287       .  A
O2114     Zr2126   2.415       .  S
O2114      C2115   1.284       .  A
C2115      C2389   1.493       .  S
O2116     Zr2119   2.465       .  S
O2116      C2118   1.291       .  A
O2117      C2118   1.283       .  A
C2118      C2401   1.485       .  S
Zr2119     O2120   2.450       .  S
Zr2119     O2121   2.433       .  S
Zr2119     O2127   2.412       .  S
Zr2119     O2128   2.322       .  S
Zr2119     O2131   2.386       .  S
Zr2119     O2129   2.260       .  S
O2120      H2140   0.991       .  S
O2120      H2145   0.992       .  S
O2121      H2141   0.989       .  S
Zr2122     O2531   2.429   1_546  S
Zr2122     O2944   2.378   1_545  S
Zr2122     O2943   2.364   1_545  S
O2123     Zr2530   2.427       .  S
O2123      H2139   0.993       .  S
O2124      H2138   0.990       .  S
Zr2125     O2910   2.434       .  S
Zr2125     O2921   2.377       .  S
Zr2125     O2946   2.435       .  S
Zr2126     O2924   2.445       .  S
Zr2126     O2943   2.374   1_545  S
Zr2126     O2945   2.293   1_545  S
O2127     Zr2938   2.365       .  S
O2127     Zr2942   2.375       .  S
O2127      H2135   0.969       .  S
O2128     Zr2938   2.382       .  S
O2129     Zr2942   2.294       .  S
O2130     Zr2941   2.439   1_545  S
O2131      H2136   0.969       .  S
O2149     Zr2161   2.440       .  S
O2149      C2151   1.287       .  A
O2150     Zr2187   2.421       .  S
O2150      C2151   1.283       .  A
C2151      C2305   1.493       .  S
O2152     Zr2164   2.431       .  S
O2152      C2154   1.287       .  A
O2153     Zr2188   2.454   1_455  S
C2154      C2281   1.499       .  S
O2155     Zr2164   2.434       .  S
O2155      C2157   1.287       .  A
O2156     Zr3003   2.425   1_545  S
O2156      C2157   1.286       .  A
C2157      C2377   1.471       .  S
O2158     Zr2161   2.363       .  S
O2159     Zr2188   2.380   1_565  S
O2159      C2160   1.266       .  A
C2160      C2928   1.415       .  S
Zr2161     O2978   2.431       .  S
Zr2161     O2983   2.346       .  S
Zr2161     O2984   2.412       .  S
O2162     Zr2977   2.428       .  S
O2162      H2205   0.988   1_565  S
O2163      H2204   0.989       .  S
Zr2164     O2165   2.439       .  S
Zr2164     O2166   2.436       .  S
Zr2164     O2168   2.348       .  S
Zr2164     O2167   2.382       .  S
Zr2164     O2192   2.343       .  S
Zr2164     O2194   2.383       .  S
O2165      H2206   0.988       .  S
O2165      H2209   0.991       .  S
O2166      H2199   0.990       .  S
O2167     Zr2977   2.343   1_545  S
O2167     Zr3003   2.380   1_545  S
O2168     Zr2977   2.410   1_545  S
O2168      H2195   0.968       .  S
O2169     Zr2181   2.460       .  S
O2169      C2171   1.292       .  A
O2170     Zr3004   2.400       .  S
O2170      C2171   1.284       .  A
C2171      C2296   1.470       .  S
O2172     Zr2184   2.391   1_565  S
O2172      C2990   1.267       .  A
O2173     Zr2187   2.393       .  S
C2174      O2988   1.267       .  A
C2174      C2914   1.442   1_655  S
O2175     Zr2184   2.434       .  S
O2175      C2177   1.283       .  A
O2176     Zr2188   2.432       .  S
O2176      C2177   1.285       .  A
C2177      C2356   1.472       .  S
O2178     Zr2181   2.458       .  S
O2178      C2180   1.290       .  A
O2179      C2180   1.285       .  A
C2180      C2368   1.471       .  S
Zr2181     O2182   2.436       .  S
Zr2181     O2183   2.435       .  S
Zr2181     O2189   2.390       .  S
Zr2181     O2190   2.340       .  S
Zr2181     O2193   2.395       .  S
Zr2181     O2191   2.329       .  S
O2182      H2202   0.991       .  S
O2182      H2207   0.990       .  S
O2183      H2203   0.989       .  S
Zr2184     O3001   2.431       .  S
Zr2184     O3006   2.401   1_545  S
Zr2184     O3005   2.358   1_545  S
O2185     Zr3000   2.431       .  S
O2185      H2201   0.989       .  S
O2186      H2200   0.989       .  S
Zr2187     O2972   2.417       .  S
Zr2187     O2983   2.382       .  S
Zr2187     O3008   2.425       .  S
Zr2188     O2986   2.408   1_545  S
Zr2188     O3005   2.381   1_545  S
Zr2188     O3007   2.398   1_545  S
O2189     Zr3000   2.360       .  S
O2189     Zr3004   2.377       .  S
O2189      H2197   0.964       .  S
O2190     Zr3000   2.401       .  S
O2191     Zr3004   2.394       .  S
O2192     Zr3003   2.429   1_545  S
O2192      H2196   0.963       .  S
O2193      H2198   0.963       .  S
C2211      C2213   1.549       .  S
C2211      C2215   1.554       .  S
C2211      C2214   1.543       .  S
C2211      C2260   1.588       .  S
C2212      C2216   1.542       .  S
C2212      C2218   1.539       .  S
C2212      C2217   1.540       .  S
C2212      C2269   1.588       .  S
C2213      C2221   1.376       .  A
C2213      C2216   1.411       .  A
C2214      C2225   1.380       .  A
C2214      C2217   1.406       .  A
C2215      C2229   1.384       .  A
C2215      C2218   1.412       .  A
C2216      C2219   1.373       .  A
C2217      C2223   1.371       .  A
C2218      C2226   1.371       .  A
C2219      N2220   1.354       .  A
C2219      H2232   1.081       .  S
N2220      C2221   1.354       .  A
N2220      C2344   1.432       .  S
C2221      H2222   1.082       .  S
C2223      N2224   1.351       .  A
C2223      H2233   1.082       .  S
N2224      C2225   1.357       .  A
N2224      C2320   1.427       .  S
C2225      H2231   1.082       .  S
C2226      N2227   1.355       .  A
C2226      H2228   1.083       .  S
N2227      C2229   1.357       .  A
N2227      C2329   1.432       .  S
C2229      H2230   1.081       .  S
C2234      C2236   1.561       .  S
C2234      C2238   1.540       .  S
C2234      C2237   1.547       .  S
C2234      C2272   1.585       .  S
C2235      C2239   1.546       .  S
C2235      C2241   1.535       .  S
C2235      C2240   1.542       .  S
C2235      C2257   1.586       .  S
C2236      C2244   1.382       .  A
C2236      C2239   1.411       .  A
C2237      C2248   1.383       .  A
C2237      C2240   1.407       .  A
C2238      C2252   1.379       .  A
C2238      C2241   1.403       .  A
C2239      C2242   1.374       .  A
C2240      C2246   1.374       .  A
C2241      C2249   1.370       .  A
C2242      N2243   1.358       .  A
C2242      H2255   1.081       .  S
N2243      C2244   1.364       .  A
N2243      C2308   1.449       .  S
C2244      H2245   1.080       .  S
C2246      N2247   1.358       .  A
C2246      H2256   1.082       .  S
N2247      C2248   1.357       .  A
N2247      C2284   1.436       .  S
C2248      H2254   1.082       .  S
C2249      N2250   1.352       .  A
C2249      H2251   1.082       .  S
N2250      C2252   1.355       .  A
N2250      C2293   1.425       .  S
C2252      H2253   1.082       .  S
C2257      C2258   1.413       .  A
C2257      C2262   1.432       .  A
C2258      C2259   1.421       .  A
C2258      H2267   1.081       .  S
C2259      C2260   1.435       .  A
C2259      S2263   1.808       .  S
C2260      C2261   1.415       .  A
C2261      C2262   1.422       .  A
C2261      H2268   1.079       .  S
C2262      S2264   1.807       .  S
S2263      H2266   1.397       .  S
S2264      H2265   1.400       .  S
C2269      C2270   1.413       .  A
C2269      C2274   1.430       .  A
C2270      C2271   1.418       .  A
C2270      H2279   1.082       .  S
C2271      S2275   1.807   1_556  S
C2273      C2274   1.424   1_554  A
C2274      S2276   1.804       .  S
S2276      H2277   1.403       .  S
C2281      C2282   1.412       .  A
C2281      C2286   1.423       .  A
C2282      C2283   1.395       .  A
C2282      H2291   1.084       .  S
C2283      C2284   1.406       .  A
C2283      S2287   1.804       .  S
C2284      C2285   1.401       .  A
C2285      C2286   1.407       .  A
C2285      H2292   1.083       .  S
S2287      H2290   1.406       .  S
S2288      H2289   1.398       .  S
C2293      C2294   1.400       .  A
C2293      C2298   1.406       .  A
C2294      C2295   1.396       .  A
C2294      H2303   1.084       .  S
C2295      C2296   1.412       .  A
C2295      S2299   1.802       .  S
C2296      C2297   1.404       .  A
C2297      C2298   1.396       .  A
C2297      H2304   1.084       .  S
C2298      S2300   1.802       .  S
S2299      H2302   1.406       .  S
S2300      H2301   1.407       .  S
C2305      C2306   1.409       .  A
C2305      C2310   1.420       .  A
C2306      C2307   1.397       .  A
C2306      H2315   1.084       .  S
C2307      C2308   1.414       .  A
C2307      S2311   1.802       .  S
C2308      C2309   1.409       .  A
C2309      C2310   1.402       .  A
C2309      H2316   1.082       .  S
C2310      S2312   1.805       .  S
S2311      H2314   1.407       .  S
C2317      C2318   1.405       .  A
C2317      C2322   1.413       .  A
C2318      C2319   1.398       .  A
C2318      H2327   1.083       .  S
C2319      C2320   1.407       .  A
C2319      S2323   1.803       .  S
C2320      C2321   1.399       .  A
C2321      C2322   1.402       .  A
C2321      H2328   1.083       .  S
C2322      S2324   1.805       .  S
S2323      H2326   1.406       .  S
S2324      H2325   1.407       .  S
C2329      C2330   1.399       .  A
C2329      C2334   1.408       .  A
C2330      C2331   1.403       .  A
C2330      H2339   1.082       .  S
C2331      C2332   1.417       .  A
C2331      S2335   1.806       .  S
C2332      C2333   1.408       .  A
C2333      C2334   1.398       .  A
C2333      H2340   1.084       .  S
C2334      S2336   1.803       .  S
S2335      H2338   1.407       .  S
S2336      H2337   1.405       .  S
C2341      C2342   1.406       .  A
C2341      C2346   1.416       .  A
C2342      C2343   1.393       .  A
C2342      H2351   1.084       .  S
C2343      C2344   1.410       .  A
C2343      S2347   1.803       .  S
C2344      C2345   1.401       .  A
C2345      C2346   1.397       .  A
C2345      H2352   1.083       .  S
C2346      S3164   1.803       .  S
S2347      H2350   1.407       .  S
S2348      C3162   1.803   1_545  S
S2348      H2349   1.407       .  S
C2353      C2354   1.401       .  A
C2353      C2358   1.410       .  A
C2354      C2355   1.400       .  A
C2354      H2363   1.083       .  S
C2355      C2356   1.414       .  A
C2355      S2359   1.804       .  S
C2356      C2357   1.402       .  A
C2357      C2358   1.397       .  A
C2357      H2364   1.081       .  S
C2358      S2360   1.803       .  S
S2359      H3178   1.405   1_545  S
S2360      H2361   1.407       .  S
H2362      S3175   1.405       .  S
C2365      C2366   1.402       .  A
C2365      C2370   1.419       .  A
C2366      C2367   1.392       .  A
C2366      H2375   1.083       .  S
C2367      C2368   1.410       .  A
C2367      S2371   1.800       .  S
C2368      C2369   1.401       .  A
C2369      C2370   1.405       .  A
C2369      H2376   1.084       .  S
C2370      S2372   1.799       .  S
S2371      H2374   1.406       .  S
S2372      H2373   1.407       .  S
C2377      C2378   1.404       .  A
C2377      C2382   1.412       .  A
C2378      C2379   1.397       .  A
C2378      H2387   1.084       .  S
C2379      C2380   1.407       .  A
C2379      S2383   1.801       .  S
C2380      C2381   1.399       .  A
C2381      C2382   1.400       .  A
C2381      H2388   1.083       .  S
C2382      S2384   1.806       .  S
S2383      H2386   1.405       .  S
S2384      H2385   1.407       .  S
C2389      C2390   1.410       .  A
C2389      C2394   1.420       .  A
C2390      C2391   1.397       .  A
C2390      H2399   1.083       .  S
C2391      C2392   1.407       .  A
C2391      S2395   1.803       .  S
C2392      C2393   1.402       .  A
C2393      C2394   1.403       .  A
C2393      H2400   1.084   1_556  S
C2394      S2396   1.802   1_556  S
S2395      H2398   1.406       .  S
S2396      H3213   1.408   1_554  S
H2397      S3212   1.407   1_556  S
C2401      C2402   1.407       .  A
C2402      C2403   1.401       .  A
C2402      H2411   1.084       .  S
C2403      C2404   1.410       .  A
C2403      S2407   1.805       .  S
C2405      C2406   1.399       .  A
C2405      H2412   1.083       .  S
C2406      S2408   1.801       .  S
S2407      H2410   1.403       .  S
S2408      H2409   1.407       .  S
C2413      C2418   1.418   1_554  A
C2414      C2415   1.400       .  A
C2414      H2423   1.084       .  S
C2415      S2419   1.801       .  S
C2416      C2417   1.399       .  A
C2417      C2418   1.404   1_554  A
C2417      H2424   1.082   1_554  S
C2418      S2420   1.806   1_545  S
S2419      H2422   1.406       .  S
S2420      H2421   1.407       .  S
C2425      C2426   1.413       .  A
C2425      C2430   1.430       .  A
C2426      C2427   1.418       .  A
C2426      H2435   1.080       .  S
C2427      C2428   1.433       .  A
C2427      S2431   1.807       .  S
C2428      C2429   1.417       .  A
C2429      C2430   1.420       .  A
C2429      H2436   1.079       .  S
C2430      S2432   1.807       .  S
S2431      H2434   1.398       .  S
S2432      H2433   1.399       .  S
C2437      C2438   1.412       .  A
C2437      C2442   1.428       .  A
C2438      C2439   1.421       .  A
C2438      H2447   1.078       .  S
C2439      C2440   1.433       .  A
C2439      S2443   1.806       .  S
C2440      C2441   1.415       .  A
C2441      C2442   1.424       .  A
C2441      H2448   1.079       .  S
C2442      S2444   1.810       .  S
S2443      H2446   1.401       .  S
S2444      H2445   1.406       .  S
C2449      C2451   1.550       .  S
C2449      C2453   1.558       .  S
C2449      C2452   1.542       .  S
C2449      C2845   1.581       .  S
C2450      C2454   1.551       .  S
C2450      C2456   1.530       .  S
C2450      C2455   1.545       .  S
C2450      C2836   1.583       .  S
C2451      C2459   1.379       .  A
C2451      C2862   1.410   1_554  A
C2452      C2463   1.381       .  A
C2452      C2863   1.405   1_554  A
C2453      C2467   1.390       .  A
C2453      C2864   1.408   1_554  A
C2454      C2859   1.410       .  A
C2454      C2457   1.380       .  A
C2455      C2860   1.405       .  A
C2455      C2461   1.376       .  A
C2456      C2861   1.407       .  A
C2456      C2464   1.368       .  A
C2457      N2458   1.357       .  A
C2457      H2470   1.082       .  S
N2458      C2867   1.356       .  A
N2458      C2800   1.438       .  S
C2459      N2866   1.356   1_554  A
C2459      H2460   1.082       .  S
C2461      N2870   1.357       .  A
C2461      H2471   1.082       .  S
N2462      C2869   1.357   1_554  A
N2462      C2463   1.358       .  A
N2462      C3232   1.436       .  S
C2463      H2469   1.082       .  S
C2464      N2873   1.348       .  A
C2464      H2466   1.083       .  S
N2465      C2872   1.349       .  A
N2465      C2467   1.360   1_556  A
N2465      C3220   1.431       .  S
C2467      H2468   1.080       .  S
C2472      C2474   1.546       .  S
C2472      C2476   1.533       .  S
C2472      C2475   1.540       .  S
C2472      C2848   1.585       .  S
C2473      C2477   1.554       .  S
C2473      C2479   1.552       .  S
C2473      C2478   1.545       .  S
C2473      C2833   1.582       .  S
C2474      C2482   1.376       .  A
C2474      C2477   1.412       .  A
C2475      C2486   1.369       .  A
C2475      C2478   1.403       .  A
C2476      C2490   1.369       .  A
C2476      C2479   1.407       .  A
C2477      C2480   1.381       .  A
C2478      C2484   1.383       .  A
C2479      C2487   1.385       .  A
C2480      N2481   1.357       .  A
C2480      H2493   1.081       .  S
N2481      C2482   1.354       .  A
N2481      C2761   1.435       .  S
C2482      H2483   1.082       .  S
C2484      N2485   1.362       .  A
C2484      H2494   1.082       .  S
N2485      C2486   1.356       .  A
N2485      C2773   1.444       .  S
C2486      H2492   1.081       .  S
C2487      N2488   1.356       .  A
C2487      H2489   1.081       .  S
N2488      C2490   1.352       .  A
N2488      C2788   1.428       .  S
C2490      H2491   1.083       .  S
O2495     Zr2507   2.448   1_565  S
O2495      C2497   1.285       .  A
O2496     Zr2533   2.401       .  S
O2496      C2497   1.280       .  A
C2497      C2749   1.482       .  S
O2498     Zr2510   2.467       .  S
O2498      C2500   1.293       .  A
O2499      C2500   1.283       .  A
C2500      C2725   1.479       .  S
O2501     Zr2510   2.441       .  S
O2501      C2503   1.289       .  A
O2502      C2503   1.288       .  A
C2503      C2821   1.489       .  S
O2504     Zr2507   2.410       .  S
O2505     Zr2534   2.373       .  S
O2505      C2506   1.264   1_655  A
O2508      H2551   0.989       .  S
O2509      H2550   0.989       .  S
Zr2510     O2511   2.434       .  S
Zr2510     O2512   2.437       .  S
Zr2510     O2514   2.348       .  S
Zr2510     O2513   2.395       .  S
Zr2510     O2538   2.356       .  S
Zr2510     O2540   2.386       .  S
O2511      H2552   0.990       .  S
O2511      H2555   0.990       .  S
O2512      H2545   0.991       .  S
O2514      H2541   0.969       .  S
O2515     Zr2527   2.423       .  S
O2515      C2517   1.284       .  A
O2516      C2517   1.287   1_545  A
C2517      C2740   1.483       .  S
O2518     Zr2938   2.426   1_554  S
O2519     Zr2941   2.380   1_554  S
O2521     Zr2530   2.458       .  S
O2521      C2523   1.287       .  A
O2522     Zr2534   2.410       .  S
O2522      C2523   1.283       .  A
C2523      C2797   1.496       .  S
O2524     Zr2527   2.462       .  S
O2524      C2526   1.290       .  A
O2525      C2526   1.284       .  A
C2526      C2809   1.484       .  S
Zr2527     O2528   2.449       .  S
Zr2527     O2529   2.432       .  S
Zr2527     O2535   2.409       .  S
Zr2527     O2536   2.318       .  S
Zr2527     O2539   2.391       .  S
Zr2527     O2537   2.260       .  S
O2528      H2548   0.990       .  S
O2528      H2553   0.992       .  S
O2529      H2549   0.987       .  S
Zr2530     O2926   2.426       .  S
O2531      H2547   0.990       .  S
O2532      H2546   0.990       .  S
Zr2533     O2927   2.382       .  S
O2535      H2543   0.968       .  S
O2538      H2950   0.965       .  S
O2539      H2544   0.969       .  S
H2542      O2946   0.966   1_554  S
O2557     Zr2569   2.444       .  S
O2557      C2559   1.288       .  A
O2558     Zr2595   2.424       .  S
O2558      C2559   1.283       .  A
C2559      C2713   1.496       .  S
O2560     Zr2572   2.436       .  S
O2560      C2562   1.289       .  A
O2561     Zr2596   2.445   1_455  S
C2562      C2689   1.498       .  S
O2563     Zr2572   2.435       .  S
O2563      C2565   1.287       .  A
O2564      C2565   1.287       .  A
C2565      C2785   1.471       .  S
O2566     Zr2569   2.360   1_545  S
O2567     Zr2596   2.375       .  S
O2567      C2568   1.265       .  A
O2570      H2613   0.990       .  S
O2571      H2612   0.989       .  S
Zr2572     O2573   2.437       .  S
Zr2572     O2574   2.434       .  S
Zr2572     O2576   2.340       .  S
Zr2572     O2575   2.381       .  S
Zr2572     O2600   2.344       .  S
Zr2572     O2602   2.385       .  S
O2573      H2614   0.991       .  S
O2573      H2617   0.990       .  S
O2574      H2607   0.989       .  S
O2576      H2603   0.968       .  S
O2577     Zr2589   2.451       .  S
O2577      C2579   1.290       .  A
O2578      C2579   1.285       .  A
C2579      C2704   1.471       .  S
O2580     Zr2592   2.388       .  S
O2581     Zr2595   2.386       .  S
O2583     Zr2592   2.436       .  S
O2583      C2585   1.284       .  A
O2584     Zr2596   2.435       .  S
O2584      C2585   1.286       .  A
C2585      C2764   1.476       .  S
O2586     Zr2589   2.459       .  S
O2586      C2588   1.290       .  A
O2587      C2588   1.286       .  A
C2588      C2776   1.473       .  S
Zr2589     O2590   2.435       .  S
Zr2589     O2591   2.434       .  S
Zr2589     O2597   2.395       .  S
Zr2589     O2598   2.335       .  S
Zr2589     O2601   2.394       .  S
Zr2589     O2599   2.331       .  S
O2590      H2610   0.991       .  S
O2590      H2615   0.990       .  S
O2591      H2611   0.990       .  S
O2593      H2609   0.990       .  S
O2594      H2608   0.989       .  S
O2597      H2605   0.964       .  S
O2600      H2604   0.963       .  S
O2601      H2606   0.957       .  S
C2619      C2621   1.547       .  S
C2619      C2623   1.552       .  S
C2619      C2622   1.539       .  S
C2619      C2668   1.584       .  S
C2620      C2624   1.547       .  S
C2620      C2626   1.542       .  S
C2620      C2625   1.542       .  S
C2620      C2677   1.590       .  S
C2621      C2629   1.376       .  A
C2621      C2624   1.410       .  A
C2622      C2633   1.379       .  A
C2622      C2625   1.405       .  A
C2623      C2637   1.383       .  A
C2623      C2626   1.412       .  A
C2624      C2627   1.377       .  A
C2625      C2631   1.373       .  A
C2626      C2634   1.372       .  A
C2627      N2628   1.356       .  A
C2627      H2640   1.081       .  S
N2628      C2629   1.354       .  A
N2628      C2752   1.435       .  S
C2629      H2630   1.082       .  S
C2631      N2632   1.352       .  A
C2631      H2641   1.081       .  S
N2632      C2633   1.356       .  A
N2632      C2728   1.426       .  S
C2633      H2639   1.082       .  S
C2634      N2635   1.356       .  A
C2634      H2636   1.083       .  S
N2635      C2637   1.357       .  A
N2635      C2737   1.433       .  S
C2637      H2638   1.081       .  S
C2642      C2644   1.563       .  S
C2642      C2646   1.542       .  S
C2642      C2645   1.549       .  S
C2642      C2680   1.586       .  S
C2643      C2647   1.548       .  S
C2643      C2649   1.534       .  S
C2643      C2648   1.540       .  S
C2643      C2665   1.583       .  S
C2644      C2652   1.383       .  A
C2644      C2647   1.412       .  A
C2645      C2656   1.384       .  A
C2645      C2648   1.406       .  A
C2646      C2660   1.380       .  A
C2646      C2649   1.403       .  A
C2647      C2650   1.376       .  A
C2648      C2654   1.374       .  A
C2649      C2657   1.370       .  A
C2650      N2651   1.358       .  A
C2650      H2663   1.081       .  S
N2651      C2652   1.365       .  A
N2651      C2716   1.451       .  S
C2652      H2653   1.080       .  S
C2654      N2655   1.357       .  A
C2654      H2664   1.083       .  S
N2655      C2656   1.357       .  A
N2655      C2692   1.437       .  S
C2656      H2662   1.081       .  S
C2657      N2658   1.352       .  A
C2657      H2659   1.082       .  S
N2658      C2660   1.356       .  A
N2658      C2701   1.426       .  S
C2660      H2661   1.082       .  S
C2665      C2666   1.412       .  A
C2665      C2670   1.432       .  A
C2666      C2667   1.419       .  A
C2666      H2675   1.082       .  S
C2667      C2668   1.434       .  A
C2667      S2671   1.809       .  S
C2668      C2669   1.414       .  A
C2669      C2670   1.421       .  A
C2669      H2676   1.080       .  S
C2670      S2672   1.807       .  S
S2671      H2674   1.397       .  S
S2672      H2673   1.400       .  S
C2677      C2678   1.414       .  A
C2677      C2682   1.429       .  A
C2678      C2679   1.421       .  A
C2678      H2687   1.082       .  S
C2679      C3088   1.434       .  A
C2679      S2683   1.807       .  S
C2680      C3087   1.434   1_554  A
C2680      C3089   1.418       .  A
C2681      C3088   1.417       .  A
C2681      C2682   1.423       .  A
C2681      H3096   1.080       .  S
C2682      S2684   1.804       .  S
S2683      H3094   1.398       .  S
S2684      H2685   1.403       .  S
H2686      S3091   1.398       .  S
H2688      C3089   1.080       .  S
C2689      C2690   1.410       .  A
C2689      C2694   1.424       .  A
C2690      C2691   1.395       .  A
C2690      H2699   1.084       .  S
C2691      C2692   1.407       .  A
C2691      S2695   1.803       .  S
C2692      C2693   1.401       .  A
C2693      C2694   1.407       .  A
C2693      H2700   1.083       .  S
S2695      H2698   1.406       .  S
S2696      H2697   1.398       .  S
C2701      C2702   1.400       .  A
C2701      C2706   1.407       .  A
C2702      C2703   1.397       .  A
C2702      H2711   1.084       .  S
C2703      C2704   1.413       .  A
C2703      S2707   1.802       .  S
C2704      C2705   1.404       .  A
C2705      C2706   1.396       .  A
C2705      H2712   1.084       .  S
C2706      S2708   1.802       .  S
S2707      H2710   1.406       .  S
S2708      H2709   1.406       .  S
C2713      C2714   1.409       .  A
C2713      C2718   1.421       .  A
C2714      C2715   1.399       .  A
C2714      H2723   1.084       .  S
C2715      C2716   1.415       .  A
C2715      S2719   1.803       .  S
C2716      C2717   1.409       .  A
C2717      C2718   1.404       .  A
C2717      H2724   1.082       .  S
C2718      S2720   1.805       .  S
S2719      H2722   1.407       .  S
C2725      C2726   1.406       .  A
C2725      C2730   1.414       .  A
C2726      C2727   1.399       .  A
C2726      H2735   1.083       .  S
C2727      C2728   1.405       .  A
C2727      S2731   1.801       .  S
C2728      C2729   1.398       .  A
C2729      C2730   1.401       .  A
C2729      H2736   1.083       .  S
C2730      S2732   1.803       .  S
S2731      H2734   1.406       .  S
S2732      H2733   1.406       .  S
C2737      C2738   1.399       .  A
C2737      C2742   1.409       .  A
C2738      C2739   1.402       .  A
C2738      H2747   1.082       .  S
C2739      C2740   1.417       .  A
C2739      S2743   1.804   1_565  S
C2740      C2741   1.407       .  A
C2741      C2742   1.398       .  A
C2741      H2748   1.084       .  S
C2742      S2744   1.802       .  S
S2743      H2746   1.407       .  S
S2744      H2745   1.406       .  S
C2749      C2750   1.407       .  A
C2749      C2754   1.416       .  A
C2750      C2751   1.395       .  A
C2750      H2759   1.084       .  S
C2751      C2752   1.410       .  A
C2751      S2755   1.803       .  S
C2752      C2753   1.402       .  A
C2753      C2754   1.399       .  A
C2753      H2760   1.083       .  S
S2755      H2758   1.407       .  S
S2756      H2757   1.407       .  S
C2761      C2762   1.401       .  A
C2761      C2766   1.412       .  A
C2762      C2763   1.401       .  A
C2762      H2771   1.083       .  S
C2763      C2764   1.415       .  A
C2763      S2767   1.804       .  S
C2764      C2765   1.402       .  A
C2765      C2766   1.398       .  A
C2765      H2772   1.080       .  S
C2766      S2768   1.803       .  S
S2768      H2769   1.407       .  S
C2773      C2774   1.404       .  A
C2773      C2778   1.420       .  A
C2774      C2775   1.393       .  A
C2774      H2783   1.083       .  S
C2775      C2776   1.410       .  A
C2775      S2779   1.801       .  S
C2776      C2777   1.401       .  A
C2777      C2778   1.405       .  A
C2777      H2784   1.084       .  S
C2778      S2780   1.799       .  S
S2779      H2782   1.406       .  S
S2780      H2781   1.407       .  S
C2785      C2786   1.403       .  A
C2785      C2790   1.411       .  A
C2786      C2787   1.399       .  A
C2786      H2795   1.084       .  S
C2787      C2788   1.408       .  A
C2787      S2791   1.801       .  S
C2788      C2789   1.398       .  A
C2789      C2790   1.400       .  A
C2789      H2796   1.082       .  S
C2790      S2792   1.805       .  S
S2791      H2794   1.406       .  S
S2792      H2793   1.406       .  S
C2797      C2798   1.410       .  A
C2797      C2802   1.420       .  A
C2798      C2799   1.397       .  A
C2798      H2807   1.083       .  S
C2799      C2800   1.408       .  A
C2799      S2803   1.803       .  S
C2800      C2801   1.403       .  A
C2801      C2802   1.403       .  A
C2801      H2808   1.083       .  S
C2802      S2804   1.802       .  S
S2803      H2806   1.407       .  S
C2809      C2810   1.407       .  A
C2809      C3222   1.416       .  A
C2810      C2811   1.401       .  A
C2810      H2819   1.084       .  S
C2811      C2812   1.409       .  A
C2811      S2815   1.802       .  S
C2812      C3221   1.398       .  A
C2812      N2873   1.431       .  S
C2813      C3220   1.399       .  A
C2813      C2814   1.399       .  A
C2813      H2820   1.084   1_556  S
C2814      C3217   1.416       .  A
C2814      S2816   1.801       .  S
S2815      H2818   1.404       .  S
S2816      H2817   1.407   1_556  S
C2821      C3230   1.407       .  A
C2821      C2826   1.418       .  A
C2822      C3229   1.406       .  A
C2822      C2823   1.400       .  A
C2822      H2831   1.084       .  S
C2823      C3232   1.411       .  A
C2823      S2827   1.801       .  S
C2824      C3231   1.411       .  A
C2824      C2825   1.400       .  A
C2824      N2870   1.436       .  S
C2825      C2826   1.405       .  A
C2825      H2832   1.083       .  S
C2826      S2828   1.805       .  S
S2827      H2830   1.406       .  S
S2828      H2829   1.407       .  S
C2833      C2834   1.413       .  A
C2833      C2838   1.430       .  A
C2834      C2835   1.419       .  A
C2834      H2843   1.080       .  S
C2835      C2836   1.433       .  A
C2835      S2839   1.809       .  S
C2836      C2837   1.416       .  A
C2837      C2838   1.419       .  A
C2837      H2844   1.079       .  S
C2838      S2840   1.807       .  S
S2839      H2842   1.396       .  S
S2840      H2841   1.398       .  S
C2845      C2846   1.412       .  A
C2845      C2850   1.428       .  A
C2846      C2847   1.420       .  A
C2846      H2855   1.078       .  S
C2847      C2848   1.432       .  A
C2847      S2851   1.807       .  S
C2848      C2849   1.414       .  A
C2849      C2850   1.422       .  A
C2849      H2856   1.079       .  S
C2850      S2852   1.810       .  S
S2851      H2854   1.399       .  S
S2852      H2853   1.406       .  S
C2857      C2859   1.550       .  S
C2857      C2861   1.558       .  S
C2857      C2860   1.543       .  S
C2857      C3253   1.582       .  S
C2858      C2862   1.552       .  S
C2858      C2864   1.533       .  S
C2858      C2863   1.545       .  S
C2858      C3244   1.585       .  S
C2859      C2867   1.379       .  A
C2860      C2871   1.381       .  A
C2861      C2875   1.390       .  A
C2862      C2865   1.380       .  A
C2863      C2869   1.376       .  A
C2864      C2872   1.370       .  A
C2865      N2866   1.358       .  A
C2865      H2878   1.082       .  S
N2866      C3208   1.439       .  S
C2867      H2868   1.082       .  S
C2869      H2879   1.082       .  S
N2870      C2871   1.358       .  A
C2871      H2877   1.082       .  S
C2872      H2874   1.083       .  S
N2873      C2875   1.361       .  A
C2875      H2876   1.081       .  S
C2880      C2882   1.548       .  S
C2880      C2884   1.533       .  S
C2880      C2883   1.543       .  S
C2880      C3256   1.587       .  S
C2881      C2885   1.554       .  S
C2881      C2887   1.551       .  S
C2881      C2886   1.544       .  S
C2881      C3241   1.584       .  S
C2882      C2890   1.377       .  A
C2882      C2885   1.412       .  A
C2883      C2894   1.371       .  A
C2883      C2886   1.405       .  A
C2884      C2898   1.369       .  A
C2884      C2887   1.408       .  A
C2885      C2888   1.382       .  A
C2886      C2892   1.383       .  A
C2887      C2895   1.384       .  A
C2888      N2889   1.357       .  A
C2888      H2901   1.081       .  S
N2889      C2890   1.355       .  A
N2889      C3169   1.435       .  S
C2890      H2891   1.082       .  S
C2892      N2893   1.360       .  A
C2892      H2902   1.082       .  S
N2893      C2894   1.357       .  A
N2893      C3181   1.441       .  S
C2894      H2900   1.081       .  S
C2895      N2896   1.355       .  A
C2895      H2897   1.081       .  S
N2896      C2898   1.353       .  A
N2896      C3196   1.427       .  S
C2898      H2899   1.083       .  S
O2903     Zr2915   2.451   1_565  S
O2903      C2905   1.285       .  A
O2904     Zr2941   2.400       .  S
O2904      C2905   1.280       .  A
C2905      C3157   1.480       .  S
O2906     Zr2918   2.465       .  S
O2906      C2908   1.292       .  A
O2907      C2908   1.284       .  A
C2908      C3133   1.477       .  S
O2909     Zr2918   2.446       .  S
O2909      C2911   1.290       .  A
O2910      C2911   1.288       .  A
C2911      C3229   1.490   1_556  S
O2912     Zr2915   2.411       .  S
O2913     Zr2942   2.378   1_455  S
O2913      C2914   1.264       .  A
O2916      H2959   0.990       .  S
O2917      H2958   0.989       .  S
Zr2918     O2919   2.435       .  S
Zr2918     O2920   2.437   1_556  S
Zr2918     O2922   2.351       .  S
Zr2918     O2921   2.394       .  S
Zr2918     O2946   2.358       .  S
Zr2918     O2948   2.389       .  S
O2919      H2960   0.990       .  S
O2919      H2963   0.990       .  S
O2920      H2953   0.989       .  S
O2922      H2949   0.968       .  S
O2923     Zr2935   2.426       .  S
O2923      C2925   1.285       .  A
O2924      C2925   1.288   1_545  A
C2925      C3148   1.489       .  S
O2929     Zr2938   2.448       .  S
O2929      C2931   1.285       .  A
O2930     Zr2942   2.422       .  S
O2930      C2931   1.285       .  A
C2931      C3205   1.497       .  S
O2932     Zr2935   2.463       .  S
O2932      C2934   1.291       .  A
O2933      C2934   1.283       .  A
C2934      C3217   1.483       .  S
Zr2935     O2936   2.450       .  S
Zr2935     O2937   2.432       .  S
Zr2935     O2943   2.409       .  S
Zr2935     O2944   2.316       .  S
Zr2935     O2947   2.391       .  S
Zr2935     O2945   2.260       .  S
O2936      H2956   0.991       .  S
O2936      H2961   0.991       .  S
O2937      H2957   0.989       .  S
O2939      H2955   0.990       .  S
O2940      H2954   0.989       .  S
O2943      H2951   0.967       .  S
O2947      H2952   0.968       .  S
O2965     Zr2977   2.440       .  S
O2965      C2967   1.287       .  A
O2966     Zr3003   2.430       .  S
O2966      C2967   1.284       .  A
C2967      C3121   1.499       .  S
O2968     Zr2980   2.435       .  S
O2968      C2970   1.288       .  A
O2969     Zr3004   2.445   1_455  S
C2970      C3097   1.498       .  S
O2971     Zr2980   2.442       .  S
O2971      C2973   1.288       .  A
O2972      C2973   1.284       .  A
C2973      C3193   1.469       .  S
O2974     Zr2977   2.362   1_545  S
O2975     Zr3004   2.385       .  S
O2975      C2976   1.266       .  A
O2978      H3021   0.990       .  S
O2979      H3020   0.990       .  S
Zr2980     O2981   2.439       .  S
Zr2980     O2982   2.434       .  S
Zr2980     O2984   2.345       .  S
Zr2980     O2983   2.381       .  S
Zr2980     O3008   2.341       .  S
Zr2980     O3010   2.385       .  S
O2981      H3022   0.988       .  S
O2981      H3025   0.991       .  S
O2982      H3015   0.989       .  S
O2984      H3011   0.968       .  S
O2985     Zr2997   2.459       .  S
O2985      C2987   1.292       .  A
O2986      C2987   1.285       .  A
C2987      C3112   1.472       .  S
O2988     Zr3000   2.394       .  S
O2989     Zr3003   2.390       .  S
O2991     Zr3000   2.440       .  S
O2991      C2993   1.284       .  A
O2992     Zr3004   2.436       .  S
O2992      C2993   1.286       .  A
C2993      C3172   1.476       .  S
O2994     Zr2997   2.465       .  S
O2994      C2996   1.292       .  A
O2995      C2996   1.286       .  A
C2996      C3184   1.475       .  S
Zr2997     O2998   2.436       .  S
Zr2997     O2999   2.434       .  S
Zr2997     O3005   2.396       .  S
Zr2997     O3006   2.337       .  S
Zr2997     O3009   2.394       .  S
Zr2997     O3007   2.331       .  S
O2998      H3018   0.989       .  S
O2998      H3023   0.991       .  S
O2999      H3019   0.990       .  S
O3001      H3017   0.990       .  S
O3002      H3016   0.991       .  S
O3005      H3013   0.963       .  S
O3008      H3012   0.966       .  S
O3009      H3014   0.961       .  S
C3027      C3029   1.549       .  S
C3027      C3031   1.554       .  S
C3027      C3030   1.540       .  S
C3027      C3076   1.585       .  S
C3028      C3032   1.544       .  S
C3028      C3034   1.545       .  S
C3028      C3033   1.542       .  S
C3028      C3085   1.589       .  S
C3029      C3037   1.377       .  A
C3029      C3032   1.410       .  A
C3030      C3041   1.379       .  A
C3030      C3033   1.405       .  A
C3031      C3045   1.385       .  A
C3031      C3034   1.412       .  A
C3032      C3035   1.376       .  A
C3033      C3039   1.373       .  A
C3034      C3042   1.375       .  A
C3035      N3036   1.355       .  A
C3035      H3048   1.081       .  S
N3036      C3037   1.354       .  A
N3036      C3160   1.433       .  S
C3037      H3038   1.082       .  S
C3039      N3040   1.351       .  A
C3039      H3049   1.081       .  S
N3040      C3041   1.356       .  A
N3040      C3136   1.426       .  S
C3041      H3047   1.082       .  S
C3042      N3043   1.357       .  A
C3042      H3044   1.083       .  S
N3043      C3045   1.359       .  A
N3043      C3145   1.437       .  S
C3045      H3046   1.081       .  S
C3050      C3052   1.563       .  S
C3050      C3054   1.542       .  S
C3050      C3053   1.549       .  S
C3050      C3088   1.587       .  S
C3051      C3055   1.550       .  S
C3051      C3057   1.534       .  S
C3051      C3056   1.542       .  S
C3051      C3073   1.584       .  S
C3052      C3060   1.384       .  A
C3052      C3055   1.411       .  A
C3053      C3064   1.383       .  A
C3053      C3056   1.407       .  A
C3054      C3068   1.380       .  A
C3054      C3057   1.403       .  A
C3055      C3058   1.377       .  A
C3056      C3062   1.376       .  A
C3057      C3065   1.370       .  A
C3058      N3059   1.360       .  A
C3058      H3071   1.081       .  S
N3059      C3060   1.365       .  A
N3059      C3124   1.454       .  S
C3060      H3061   1.080       .  S
C3062      N3063   1.358       .  A
C3062      H3072   1.083       .  S
N3063      C3064   1.357       .  A
N3063      C3100   1.437       .  S
C3064      H3070   1.081       .  S
C3065      N3066   1.352       .  A
C3065      H3067   1.082       .  S
N3066      C3068   1.356       .  A
N3066      C3109   1.427       .  S
C3068      H3069   1.082       .  S
C3073      C3074   1.412       .  A
C3073      C3078   1.433       .  A
C3074      C3075   1.419       .  A
C3074      H3083   1.081       .  S
C3075      C3076   1.434       .  A
C3075      S3079   1.808       .  S
C3076      C3077   1.414       .  A
C3077      C3078   1.422       .  A
C3077      H3084   1.080       .  S
C3078      S3080   1.807       .  S
S3079      H3082   1.398       .  S
S3080      H3081   1.399       .  S
C3085      C3086   1.413       .  A
C3085      C3090   1.429       .  A
C3086      C3087   1.419       .  A
C3086      H3095   1.082       .  S
C3087      S3091   1.806   1_556  S
C3089      C3090   1.424   1_554  A
C3090      S3092   1.805       .  S
S3092      H3093   1.403       .  S
C3097      C3098   1.411       .  A
C3097      C3102   1.423       .  A
C3098      C3099   1.395       .  A
C3098      H3107   1.084       .  S
C3099      C3100   1.407       .  A
C3099      S3103   1.804       .  S
C3100      C3101   1.401       .  A
C3101      C3102   1.406       .  A
C3101      H3108   1.083       .  S
S3103      H3106   1.406       .  S
S3104      H3105   1.397       .  S
C3109      C3110   1.400       .  A
C3109      C3114   1.407       .  A
C3110      C3111   1.398       .  A
C3110      H3119   1.084       .  S
C3111      C3112   1.413       .  A
C3111      S3115   1.801       .  S
C3112      C3113   1.404       .  A
C3113      C3114   1.396       .  A
C3113      H3120   1.084       .  S
C3114      S3116   1.801       .  S
S3115      H3118   1.405       .  S
S3116      H3117   1.407       .  S
C3121      C3122   1.410       .  A
C3121      C3126   1.421       .  A
C3122      C3123   1.401       .  A
C3122      H3131   1.084       .  S
C3123      C3124   1.417       .  A
C3123      S3127   1.803       .  S
C3124      C3125   1.409       .  A
C3125      C3126   1.404       .  A
C3125      H3132   1.082       .  S
C3126      S3128   1.805       .  S
S3127      H3130   1.407       .  S
C3133      C3134   1.406       .  A
C3133      C3138   1.413       .  A
C3134      C3135   1.397       .  A
C3134      H3143   1.084       .  S
C3135      C3136   1.406       .  A
C3135      S3139   1.802       .  S
C3136      C3137   1.399       .  A
C3137      C3138   1.401       .  A
C3137      H3144   1.082       .  S
C3138      S3140   1.804       .  S
S3139      H3142   1.405       .  S
S3140      H3141   1.407       .  S
C3145      C3146   1.401       .  A
C3145      C3150   1.409       .  A
C3146      C3147   1.406       .  A
C3146      H3155   1.082       .  S
C3147      C3148   1.418       .  A
C3147      S3151   1.807   1_565  S
C3148      C3149   1.408       .  A
C3149      C3150   1.399       .  A
C3149      H3156   1.084       .  S
C3150      S3152   1.802       .  S
S3151      H3154   1.407       .  S
S3152      H3153   1.405       .  S
C3157      C3158   1.407       .  A
C3157      C3162   1.415       .  A
C3158      C3159   1.396       .  A
C3158      H3167   1.084       .  S
C3159      C3160   1.410       .  A
C3159      S3163   1.803       .  S
C3160      C3161   1.401       .  A
C3161      C3162   1.399       .  A
C3161      H3168   1.083       .  S
S3163      H3166   1.407       .  S
S3164      H3165   1.407       .  S
C3169      C3170   1.402       .  A
C3169      C3174   1.411       .  A
C3170      C3171   1.403       .  A
C3170      H3179   1.083       .  S
C3171      C3172   1.415       .  A
C3171      S3175   1.804       .  S
C3172      C3173   1.401       .  A
C3173      C3174   1.396       .  A
C3173      H3180   1.079       .  S
C3174      S3176   1.802       .  S
S3176      H3177   1.406       .  S
C3181      C3182   1.402       .  A
C3181      C3186   1.418       .  A
C3182      C3183   1.394       .  A
C3182      H3191   1.084       .  S
C3183      C3184   1.412       .  A
C3183      S3187   1.800       .  S
C3184      C3185   1.402       .  A
C3185      C3186   1.405       .  A
C3185      H3192   1.084       .  S
C3186      S3188   1.799       .  S
S3187      H3190   1.405       .  S
S3188      H3189   1.407       .  S
C3193      C3194   1.403       .  A
C3193      C3198   1.410       .  A
C3194      C3195   1.397       .  A
C3194      H3203   1.084       .  S
C3195      C3196   1.408       .  A
C3195      S3199   1.802       .  S
C3196      C3197   1.400       .  A
C3197      C3198   1.400       .  A
C3197      H3204   1.083       .  S
C3198      S3200   1.806       .  S
S3199      H3202   1.406       .  S
S3200      H3201   1.406       .  S
C3205      C3206   1.410       .  A
C3205      C3210   1.422       .  A
C3206      C3207   1.397       .  A
C3206      H3215   1.083       .  S
C3207      C3208   1.408       .  A
C3207      S3211   1.802       .  S
C3208      C3209   1.403       .  A
C3209      C3210   1.404       .  A
C3209      H3216   1.084   1_556  S
C3210      S3212   1.802   1_556  S
S3211      H3214   1.407       .  S
C3217      C3218   1.407       .  A
C3218      C3219   1.401       .  A
C3218      H3227   1.084       .  S
C3219      C3220   1.409       .  A
C3219      S3223   1.802       .  S
C3221      C3222   1.398       .  A
C3221      H3228   1.084       .  S
C3222      S3224   1.801       .  S
S3223      H3226   1.405       .  S
S3224      H3225   1.407       .  S
C3229      C3234   1.419   1_554  A
C3230      C3231   1.399       .  A
C3230      H3239   1.084       .  S
C3231      S3235   1.802       .  S
C3232      C3233   1.400   1_554  A
C3233      C3234   1.405       .  A
C3233      H3240   1.082       .  S
C3234      S3236   1.805       .  S
S3235      H3238   1.406       .  S
S3236      H3237   1.407       .  S
C3241      C3242   1.413       .  A
C3241      C3246   1.430       .  A
C3242      C3243   1.419       .  A
C3242      H3251   1.080       .  S
C3243      C3244   1.434       .  A
C3243      S3247   1.808       .  S
C3244      C3245   1.416       .  A
C3245      C3246   1.421       .  A
C3245      H3252   1.079       .  S
C3246      S3248   1.806       .  S
S3247      H3250   1.397       .  S
S3248      H3249   1.399       .  S
C3253      C3254   1.412       .  A
C3253      C3258   1.428       .  A
C3254      C3255   1.421       .  A
C3254      H3263   1.079       .  S
C3255      C3256   1.433       .  A
C3255      S3259   1.807       .  S
C3256      C3257   1.414       .  A
C3257      C3258   1.423       .  A
C3257      H3264   1.079       .  S
C3258      S3260   1.809       .  S
S3259      H3262   1.400       .  S
S3260      H3261   1.407       .  S
