geometry optimzed in LAMMPS
_audit_creation_date              2020-11-30 
_audit_creation_method            'lammps2cif' 
_symmetry_space_group_name_H-M    'P1' 
_symmetry_Int_Tables_number       1 
_symmetry_cell_setting            triclinic 
loop_ 
_symmetry_equiv_pos_as_xyz 
  x,y,z 
_cell_length_a                    33.94889565 
_cell_length_b                    33.943736004502945 
_cell_length_c                    83.1365922531891 
_cell_angle_alpha                 90.00595471562288 
_cell_angle_beta                  90.04090944720154 
_cell_angle_gamma                 120.0711262965656 
loop_ 
_atom_site_label 
_atom_site_type_symbol 
_atom_site_fract_x 
_atom_site_fract_y 
_atom_site_fract_z 
_atom_site_charge 
C1          C  0.64350466  0.07740653  0.71840794     0.80300
N2          N  0.68397682  0.09396427  0.71059920    -0.78000
C3          C  0.68741694  0.07103403  0.69763394     0.82800
N4          N  0.65033467  0.03143575  0.69267876    -0.77900
C5          C  0.60996685  0.01529599  0.70045270     0.82900
N6          N  0.60707541  0.03851549  0.71314319    -0.79600
C7          C  0.77234040  0.08535139  0.66664871     0.80300
N8          N  0.73305825  0.06738870  0.67526428    -0.78000
C9          C  0.73048494  0.08967995  0.68859019     0.82800
N10         N  0.76735105  0.13003000  0.69316248    -0.77900
C11         C  0.80656116  0.14759445  0.68453874     0.82900
N12         N  0.80840320  0.12508089  0.67143639    -0.79600
C13         C  0.48312552  0.75407634  0.83283547     0.80300
N14         N  0.48853941  0.79506154  0.83686299    -0.78000
C15         C  0.51798496  0.82110299  0.84846703     0.82800
N16         N  0.54259056  0.80568737  0.85640673    -0.77900
C17         C  0.53731692  0.76416067  0.85263845     0.82900
N18         N  0.50769421  0.73845081  0.84073370    -0.79600
C19         C  0.61529291  0.75594902  0.88200003     0.80300
N20         N  0.60837897  0.71415998  0.87844592    -0.78000
C21         C  0.57927264  0.68819545  0.86680358     0.82800
N22         N  0.55644967  0.70456834  0.85825211    -0.77900
C23         C  0.56302171  0.74688315  0.86159958     0.82900
N24         N  0.59223239  0.77245402  0.87364135    -0.79600
C25         C  0.80782167  0.41686511  0.50173897     0.80300
N26         N  0.83141142  0.39996066  0.50950670    -0.78000
C27         C  0.85924879  0.42357731  0.52206896     0.82800
N28         N  0.86363800  0.46428136  0.52667500    -0.77900
C29         C  0.83983623  0.48086785  0.51888618     0.82900
N30         N  0.81228422  0.45689979  0.50657047    -0.79600
C31         C  0.93724992  0.41466176  0.55091495     0.80300
N32         N  0.91289772  0.43031836  0.54302336    -0.78000
C33         C  0.88481270  0.40560221  0.53068194     0.82800
N34         N  0.88082730  0.36474379  0.52642761    -0.77900
C35         C  0.90545023  0.34933811  0.53446276     0.82900
N36         N  0.93324243  0.37461788  0.54651600    -0.79600
C37         C  0.43259194  0.42725594  0.99535719     0.80300
N38         N  0.46853400  0.46720916  0.99985942    -0.78000
C39         C  0.46795387  0.48937125  0.01320831     0.82800
N40         N  0.42987863  0.47112785  0.02247282    -0.77900
C41         C  0.39294911  0.43039984  0.01816748     0.82900
N42         N  0.39441863  0.40839989  0.00456430    -0.79600
C43         C  0.30972423  0.41379206  0.05017820     0.80300
N44         N  0.27359025  0.37425806  0.04527290    -0.78000
C45         C  0.27529402  0.35225738  0.03203559     0.82800
N46         N  0.31433313  0.37020044  0.02334361    -0.77900
C47         C  0.35120579  0.41044324  0.02796998     0.82900
N48         N  0.34890011  0.43229025  0.04147095    -0.79600
C49         C  0.97802148  0.74442806  0.38480393     0.80300
N50         N  0.01885988  0.76038108  0.37733189    -0.78000
C51         C  0.02273303  0.73685450  0.36463108     0.82800
N52         N  0.98567840  0.69716205  0.35964237    -0.77900
C53         C  0.94499063  0.68166763  0.36715534     0.82900
N54         N  0.94183282  0.70552742  0.37954367    -0.79600
C55         C  0.11094513  0.74857572  0.33543762     0.80300
N56         N  0.07041755  0.73162428  0.34324861    -0.78000
C57         C  0.06662662  0.75470033  0.35614683     0.82800
N58         N  0.10328444  0.79506611  0.36092078    -0.77900
C59         C  0.14358073  0.81160740  0.35304327     0.82900
N60         N  0.14667307  0.78803344  0.34054053    -0.79600
C61         C  0.14221435  0.08197040  0.16744664     0.80300
N62         N  0.16276340  0.06406626  0.17644158    -0.78000
C63         C  0.18890161  0.08774366  0.18931959     0.82800
N64         N  0.19450371  0.12948522  0.19308104    -0.77900
C65         C  0.17373443  0.14711201  0.18399036     0.82900
N66         N  0.14797287  0.12309898  0.17134509    -0.79600
C67         C  0.25758912  0.07331225  0.22091648     0.80300
N68         N  0.23738381  0.09169473  0.21194437    -0.78000
C69         C  0.21068247  0.06798634  0.19914592     0.82800
N70         N  0.20415988  0.02583576  0.19546271    -0.77900
C71         C  0.22438266  0.00775855  0.20458183     0.82900
N72         N  0.25077485  0.03180998  0.21708809    -0.79600
C73         C  0.04690334  0.68472805  0.83386200     0.80300
N74         N  0.00647943  0.64867481  0.83807666    -0.78000
C75         C  0.98352414  0.64967370  0.85115170     0.82800
N76         N  0.00148085  0.68792910  0.86034195    -0.77900
C77         C  0.04255665  0.72468130  0.85632097     0.82900
N78         N  0.06517785  0.72304346  0.84299371    -0.79600
C79         C  0.05802840  0.80558826  0.88894141     0.80300
N80         N  0.03958665  0.76759049  0.87963508    -0.78000
C81         C  0.06230143  0.76612349  0.86628612     0.82800
N82         N  0.10331738  0.80305117  0.86223547    -0.77900
C83         C  0.12139423  0.84103766  0.87158364     0.82900
N84         N  0.09851235  0.84155680  0.88477946    -0.79600
C85         C  0.70525595  0.64006771  0.66484909     0.80300
N86         N  0.72301659  0.61984725  0.67408288    -0.78000
C87         C  0.69850008  0.59293494  0.68669357     0.82800
N88         N  0.65609469  0.58634366  0.68997077    -0.77900
C89         C  0.63850957  0.60651443  0.68052552     0.82900
N90         N  0.66335487  0.63293928  0.66816163    -0.79600
C91         C  0.71333260  0.52489138  0.71848670     0.80300
N92         N  0.75373619  0.52970682  0.71412986    -0.78000
C93         C  0.77677440  0.55449967  0.70122021     0.82800
N94         N  0.75892447  0.57530378  0.69231854    -0.77900
C95         C  0.71790446  0.57076564  0.69650586     0.82900
N96         N  0.69504002  0.54547116  0.70965490    -0.79600
C97         C  0.38174009  0.34998932  0.50119920     0.80300
N98         N  0.34048360  0.31410576  0.50456918    -0.78000
C99         C  0.31403325  0.31569046  0.51632183     0.82800
N100        N  0.32945143  0.35438178  0.52516106    -0.77900
C101        C  0.37134099  0.39115160  0.52196186     0.82900
N102        N  0.39737843  0.38897260  0.50984126    -0.79600
C103        C  0.37958092  0.47359072  0.55295400     0.80300
N104        N  0.42050533  0.50970259  0.54926089    -0.78000
C105        C  0.44596395  0.50871656  0.53699047     0.82800
N106        N  0.43003586  0.47012912  0.52806762    -0.77900
C107        C  0.38857010  0.43308485  0.53158063     0.82900
N108        N  0.36332841  0.43487429  0.54408911    -0.79600
C109        C  0.36590278  0.95930811  0.99483457     0.80300
N110        N  0.38430444  0.93884193  0.00370382    -0.78000
C111        C  0.36129907  0.91324397  0.01681833     0.82800
N112        N  0.32012053  0.90846250  0.02095744    -0.77900
C113        C  0.30217059  0.92914349  0.01202833     0.82900
N114        N  0.32528041  0.95406751  0.99915663    -0.79600
C115        C  0.37308062  0.84201510  0.04804409     0.80300
N116        N  0.35622753  0.86400290  0.03928285    -0.78000
C117        C  0.38031427  0.89025773  0.02646408     0.82800
N118        N  0.42162424  0.89481417  0.02263326    -0.77900
C119        C  0.43821786  0.87271269  0.03154754     0.82900
N120        N  0.41358542  0.84662728  0.04401761    -0.79600
C121        C  0.04309776  0.18372527  0.38315805     0.80300
N122        N  0.02503534  0.20419290  0.37413386    -0.78000
C123        C  0.04919373  0.23106559  0.36141523     0.82800
N124        N  0.09134962  0.23744942  0.35789808    -0.77900
C125        C  0.10902301  0.21684339  0.36701207     0.82900
N126        N  0.08461959  0.19034403  0.37941185    -0.79600
C127        C  0.03565345  0.29879530  0.32922712     0.80300
N128        N  0.05381402  0.27903969  0.33854637    -0.78000
C129        C  0.02975078  0.25277800  0.35135975     0.82800
N130        N  0.98749938  0.24630505  0.35470018    -0.77900
C131        C  0.96961526  0.26613360  0.34526476     0.82900
N132        N  0.99395119  0.29207204  0.33273231    -0.79600
C133        C  0.72208813  0.14171266  0.22129326     0.80300
N134        N  0.76221398  0.17786611  0.21691487    -0.78000
C135        C  0.78540451  0.17665302  0.20393648     0.82800
N136        N  0.76815273  0.13785348  0.19504335    -0.77900
C137        C  0.72739702  0.10082946  0.19921233     0.82900
N138        N  0.70432095  0.10290601  0.21237875    -0.79600
C139        C  0.71892187  0.01435445  0.16984986     0.80300
N140        N  0.73456837  0.05451057  0.17780279    -0.78000
C141        C  0.70943546  0.05800667  0.18998544     0.82800
N142        N  0.66817905  0.02136417  0.19388680    -0.77900
C143        C  0.65259300  0.98144677  0.18579216     0.82900
N144        N  0.67830702  0.97845772  0.17399740    -0.79600
C145        C  0.49124307  0.68745706  0.33169132     0.80300
N146        N  0.51199009  0.72654934  0.34034696    -0.78000
C147        C  0.53525542  0.72869196  0.35401703     0.82800
N148        N  0.53769009  0.69145738  0.35897251    -0.77900
C149        C  0.51641992  0.65227339  0.35026842     0.82900
N150        N  0.49358611  0.65101189  0.33680242    -0.79600
C151        C  0.60153553  0.81282071  0.38561293     0.80300
N152        N  0.59609356  0.84790714  0.38111746    -0.78000
C153        C  0.57181403  0.84582253  0.36801355     0.82800
N154        N  0.55187107  0.80706197  0.35906494    -0.77900
C155        C  0.55683388  0.77091130  0.36351283     0.82900
N156        N  0.58185812  0.77395736  0.37680096    -0.79600
C157        C  0.27209971  0.14774418  0.71865983     0.80300
N158        N  0.25042585  0.10866932  0.70991771    -0.78000
C159        C  0.22486743  0.10642231  0.69682823     0.82800
N160        N  0.22090570  0.14329647  0.69269222    -0.77900
C161        C  0.24273675  0.18216916  0.70151598     0.82900
N162        N  0.26800691  0.18374768  0.71428021    -0.79600
C163        C  0.15719359  0.02396511  0.66465378     0.80300
N164        N  0.16123376  0.98801061  0.66913777    -0.78000
C165        C  0.18502381  0.98903195  0.68224476     0.82800
N166        N  0.20580525  0.02751520  0.69130899    -0.77900
C167        C  0.20197964  0.06443711  0.68708428     0.82900
N168        N  0.17759042  0.06261519  0.67367547    -0.79600
C169        C  0.44372754  0.98382554  0.50174583     0.80300
N170        N  0.40470014  0.96216152  0.51040521    -0.78000
C171        C  0.40231435  0.93667177  0.52347349     0.82800
N172        N  0.43910118  0.93261369  0.52772147    -0.77900
C173        C  0.47818361  0.95468241  0.51901075     0.82900
N174        N  0.47983355  0.97995339  0.50622034    -0.79600
C175        C  0.31723536  0.86645870  0.55438064     0.80300
N176        N  0.35635948  0.88688038  0.54568713    -0.78000
C177        C  0.36013118  0.91416946  0.53298833     0.82800
N178        N  0.32469229  0.92083535  0.52911983    -0.77900
C179        C  0.28584232  0.90027398  0.53794853     0.82900
N180        N  0.28282895  0.87351710  0.55036560    -0.79600
C181        C  0.64816346  0.52510334  0.21858200     0.80300
N182        N  0.68875855  0.54777985  0.21073261    -0.78000
C183        C  0.69326275  0.57495189  0.19786063     0.82800
N184        N  0.65719806  0.57953133  0.19308877    -0.77900
C185        C  0.61680048  0.55647363  0.20092925     0.82900
N186        N  0.61294117  0.52964213  0.21347023    -0.79600
C187        C  0.77916115  0.64600544  0.16719381     0.80300
N188        N  0.81495695  0.64221811  0.17209361    -0.78000
C189        C  0.81286157  0.61746614  0.18508934     0.82800
N190        N  0.77333439  0.59531209  0.19356043    -0.77900
C191        C  0.73656109  0.59890482  0.18887479     0.82900
N192        N  0.73962284  0.62435228  0.17564004    -0.79600
C193        C  0.81902679  0.35191033  0.99955235     0.80300
N194        N  0.83846484  0.39005881  0.00877703    -0.78000
C195        C  0.86188010  0.39145503  0.02235468     0.82800
N196        N  0.86579245  0.35458093  0.02656813    -0.77900
C197        C  0.84586488  0.31649434  0.01728996     0.82900
N198        N  0.82286537  0.31581628  0.00399708    -0.79600
C199        C  0.92339502  0.47133094  0.05571646     0.80300
N200        N  0.91973329  0.50757983  0.05125294    -0.78000
C201        C  0.89794998  0.50733118  0.03764644     0.82800
N202        N  0.87897328  0.46953956  0.02820018    -0.77900
C203        C  0.88251794  0.43254453  0.03249583     0.82900
N204        N  0.90495832  0.43359314  0.04627518    -0.79600
C205        C  0.11707298  0.32566309  0.83626663     0.80300
N206        N  0.15263670  0.32025340  0.84031191    -0.78000
C207        C  0.15031297  0.29385024  0.85286500     0.82800
N208        N  0.11146992  0.27244038  0.86170150    -0.77900
C209        C  0.07539445  0.27797381  0.85788586     0.82900
N210        N  0.07823161  0.30443347  0.84507799    -0.79600
C211        C  0.99103066  0.20745949  0.88898200     0.80300
N212        N  0.02989649  0.22805593  0.88013715    -0.78000
C213        C  0.03336538  0.25540637  0.86750249     0.82800
N214        N  0.99782252  0.26199636  0.86380755    -0.77900
C215        C  0.95909142  0.24127512  0.87270536     0.82900
N216        N  0.95633837  0.21439287  0.88512659    -0.79600
O217        O  0.54969268  0.17814204  0.81699309    -0.86400
O218        O  0.66295859  0.38743163  0.87067226    -0.86500
O219        O  0.62307835  0.33363192  0.81803075    -0.88200
O220        O  0.68257338  0.27319664  0.84794898    -0.87000
O221        O  0.65738591  0.22799649  0.87043312    -0.86600
O222        O  0.55776246  0.33805523  0.81771006    -0.87900
O223        O  0.68227882  0.36196888  0.84809151    -0.86400
O224        O  0.61963371  0.24327745  0.81699526    -0.86000
Zr225      Zr  0.62118394  0.28739601  0.84049088     2.84300
O226        O  0.62145827  0.28753531  0.86859421    -1.08000
O227        O  0.54653336  0.25370499  0.83098741    -1.08700
C228        C  0.58938845  0.20475909  0.81094989     1.06700
C229        C  0.69045438  0.39164027  0.85919041     1.06700
C230        C  0.59684724  0.34716691  0.81202630     1.09700
C231        C  0.68744556  0.25061813  0.85952452     1.07400
H232        H  0.60359515  0.35944648  0.84615231     0.33000
O233        O  0.58717725  0.32845001  0.84994458    -1.28900
H234        H  0.59610827  0.19599449  0.84560871     0.32700
O235        O  0.58160513  0.21225082  0.84958937    -1.30600
O236        O  0.53907720  0.32815848  0.89997250    -0.86400
O237        O  0.43050104  0.11779164  0.84688961    -0.87900
O238        O  0.52864795  0.37032567  0.84833177    -0.86400
O239        O  0.62954278  0.25910300  0.89998243    -0.86500
O240        O  0.56505596  0.13629000  0.87024656    -0.86200
O241        O  0.46547316  0.24982832  0.81812679    -0.86000
O242        O  0.41234142  0.23517478  0.87121390    -0.86400
O243        O  0.46985664  0.16857145  0.89988816    -0.85800
O244        O  0.43933154  0.28344111  0.84951701    -0.86900
O245        O  0.53640055  0.16642885  0.90043904    -0.86100
O246        O  0.57280640  0.38914525  0.87107543    -0.86500
O247        O  0.46147267  0.18024617  0.81756849    -0.86200
O248        O  0.51818845  0.11630500  0.84815760    -0.85800
O249        O  0.63310755  0.32846343  0.90043738    -0.86200
O250        O  0.47041422  0.26137119  0.90040004    -0.86500
O251        O  0.40954763  0.14196796  0.86939341    -0.87900
Zr252      Zr  0.58639396  0.32733100  0.87807101     2.83100
Zr253      Zr  0.50652336  0.17868870  0.84019930     2.83500
Zr254      Zr  0.51220648  0.29395554  0.84070434     2.84100
Zr255      Zr  0.58160071  0.21259609  0.87780033     2.83400
Zr256      Zr  0.47130061  0.21663556  0.87777033     2.84200
O257        O  0.50655952  0.17734120  0.86831182    -1.08400
O258        O  0.51155797  0.29214349  0.86874762    -1.08000
C259        C  0.49895526  0.30142257  0.90573437     1.06700
C260        C  0.40225544  0.11271599  0.85815431     1.09300
C261        C  0.55127521  0.39747646  0.85999945     1.06900
C262        C  0.64367790  0.29931848  0.90582105     1.07200
C263        C  0.54032706  0.10827037  0.85908517     1.06800
C264        C  0.45195315  0.21006202  0.81203349     1.06400
C265        C  0.40945961  0.26119164  0.86050789     1.06800
C266        C  0.49648866  0.15529542  0.90583533     1.06300
H267        H  0.44036097  0.20412352  0.84579126     0.33000
O268        O  0.47128456  0.21835127  0.84965481    -1.29500
H269        H  0.54623992  0.25189145  0.89911278     0.33000
O270        O  0.54629616  0.25206282  0.88751162    -1.30900
O271        O  0.79667453  0.84017946  0.98359902    -0.86400
O272        O  0.89308709  0.04855328  0.03726971    -0.86500
O273        O  0.75864377  0.92933018  0.01342800    -0.88200
O274        O  0.88333677  0.99978749  0.98503773    -0.87000
O275        O  0.95247633  0.00296468  0.98413658    -0.86600
O276        O  0.73900309  0.88452890  0.03602987    -0.87900
O277        O  0.84656226  0.02319721  0.01507831    -0.86400
O278        O  0.79193222  0.90539203  0.98392256    -0.86000
Zr279      Zr  0.83653361  0.94986555  0.00680526     2.84300
O280        O  0.91148135  0.99055127  0.01595886    -1.08000
O281        O  0.80250730  0.87475867  0.01604860    -1.08700
C282        C  0.78309479  0.86684050  0.97785994     1.06700
C283        C  0.86855403  0.05256315  0.02626366     1.06700
C284        C  0.73048748  0.90503367  0.02459006     1.09700
C285        C  0.92338074  0.01399611  0.97902224     1.07400
H286        H  0.81912598  0.96359436  0.03899099     0.33000
O287        O  0.83602602  0.94975309  0.03498213    -1.28900
H288        H  0.87710129  0.91592608  0.98543464     0.32700
O289        O  0.87693672  0.91552263  0.99704314    -1.30600
O290        O  0.95640218  0.99061287  0.06678457    -0.86400
O291        O  0.86001718  0.78042521  0.01337698    -0.87900
O292        O  0.80248582  0.91818086  0.06747797    -0.86400
O293        O  0.01094755  0.03351449  0.01378451    -0.86500
O294        O  0.95427828  0.91066634  0.98429372    -0.86200
O295        O  0.74262681  0.79892162  0.03724013    -0.86000
O296        O  0.87568042  0.83567692  0.06680905    -0.86400
O297        O  0.99446744  0.89744744  0.03611600    -0.85800
O298        O  0.80609352  0.83160058  0.06722439    -0.86900
O299        O  0.01393271  0.94304421  0.01374477    -0.86100
O300        O  0.86732369  0.98842821  0.06750569    -0.86500
O301        O  0.76693231  0.77902026  0.01447682    -0.86200
O302        O  0.88928503  0.84046638  0.98394689    -0.85800
O303        O  0.98404982  0.05413218  0.03565983    -0.86200
O304        O  0.96136738  0.92559202  0.06703094    -0.86500
O305        O  0.90604544  0.80678789  0.03567358    -0.87900
Zr306      Zr  0.91141917  0.99001011  0.04403338     2.83100
Zr307      Zr  0.84243686  0.84011517  0.00638251     2.83500
Zr308      Zr  0.80283366  0.87475342  0.04419271     2.84100
Zr309      Zr  0.95205987  0.95631570  0.00651647     2.83400
Zr310      Zr  0.91838012  0.88111138  0.04373506     2.84200
O311        O  0.91769601  0.88115714  0.01564193    -1.08400
O312        O  0.87785158  0.91520602  0.05328933    -1.08000
C313        C  0.96960093  0.96419824  0.07290186     1.06700
C314        C  0.88423887  0.77673839  0.02465601     1.09300
C315        C  0.82910305  0.95786126  0.07360906     1.06900
C316        C  0.01390768  0.06218654  0.02461499     1.07200
C317        C  0.92886961  0.87024179  0.97850991     1.06800
C318        C  0.73755394  0.77140519  0.02570882     1.06400
C319        C  0.83610123  0.82259549  0.07297610     1.06800
C320        C  0.02180111  0.92061771  0.02460261     1.06300
H321        H  0.82878410  0.80901217  0.03852163     0.33000
O322        O  0.84295826  0.83988905  0.03461359    -1.29500
H323        H  0.98409947  0.97347527  0.03852533     0.33000
O324        O  0.95313300  0.95664035  0.03467366    -1.30900
O325        O  0.62008672  0.32207832  0.40142255    -0.86400
O326        O  0.53307266  0.11805908  0.34649936    -0.86500
O327        O  0.54093263  0.16792683  0.40004573    -0.88200
O328        O  0.66231826  0.23385722  0.36941093    -0.87000
O329        O  0.68051905  0.27864285  0.34684109    -0.86600
O330        O  0.47022482  0.16138472  0.40023971    -0.87900
O331        O  0.57891879  0.14388006  0.36886040    -0.86400
O332        O  0.62700341  0.25819675  0.40117454    -0.86000
Zr333      Zr  0.58570136  0.21533325  0.37747385     2.84300
O334        O  0.58501682  0.21643419  0.34943381    -1.08000
O335        O  0.54351986  0.24754041  0.38699933    -1.08700
C336        C  0.63366588  0.29579759  0.40746420     1.06700
C337        C  0.55846822  0.11493085  0.35742825     1.06700
C338        C  0.50078872  0.15335126  0.40603162     1.09700
C339        C  0.68887640  0.25644574  0.35762558     1.07400
H340        H  0.49710189  0.14199158  0.37186897     0.33000
O341        O  0.51057334  0.17302041  0.36813281    -1.28900
H342        H  0.65068314  0.30812015  0.37240582     0.32700
O343        O  0.61977108  0.29092531  0.36850380    -1.30600
O344        O  0.46284540  0.17176266  0.31757312    -0.86400
O345        O  0.55715382  0.38043325  0.37191298    -0.87900
O346        O  0.41038227  0.12942496  0.37021428    -0.86400
O347        O  0.62304331  0.24643498  0.31830067    -0.86500
O348        O  0.67564535  0.36827501  0.34762516    -0.86200
O349        O  0.46802577  0.24862765  0.40113215    -0.86000
O350        O  0.42383146  0.26208574  0.34754572    -0.86400
O351        O  0.54498655  0.32949176  0.31768565    -0.85800
O352        O  0.40488968  0.21650380  0.36993134    -0.86900
O353        O  0.61512179  0.33471183  0.31742472    -0.86100
O354        O  0.43666613  0.11007577  0.34784994    -0.86500
O355        O  0.53203490  0.31955564  0.40112250    -0.86200
O356        O  0.64930956  0.38772312  0.36994573    -0.85800
O357        O  0.55808599  0.17628949  0.31759634    -0.86200
O358        O  0.45582265  0.23566822  0.31777086    -0.86500
O359        O  0.51184317  0.35602409  0.34938063    -0.87900
Zr360      Zr  0.51044318  0.17421825  0.33997229     2.83100
Zr361      Zr  0.57683478  0.32253733  0.37797699     2.83500
Zr362      Zr  0.46866717  0.20614570  0.37758271     2.84100
Zr363      Zr  0.61797625  0.29118089  0.34027500     2.83400
Zr364      Zr  0.50137654  0.28235690  0.34045115     2.84200
O365        O  0.57634737  0.32412882  0.34983701    -1.08400
O366        O  0.46846791  0.20693406  0.34946850    -1.08000
C367        C  0.44742574  0.19692165  0.31191480     1.06700
C368        C  0.53294900  0.38483994  0.36088239     1.09300
C369        C  0.40688092  0.10157972  0.35900740     1.06900
C370        C  0.59795714  0.20608915  0.31241880     1.07200
C371        C  0.67879674  0.39634038  0.35869611     1.06800
C372        C  0.49414546  0.28856178  0.40717579     1.06400
C373        C  0.39613814  0.23765317  0.35879387     1.06800
C374        C  0.58502389  0.34358588  0.31171142     1.06300
H375        H  0.48429459  0.29477397  0.37276736     0.33000
O376        O  0.50151500  0.28139229  0.36864800    -1.29500
H377        H  0.54325471  0.24949436  0.31908279     0.33000
O378        O  0.54317539  0.24939221  0.33070108    -1.30900
O379        O  0.34146221  0.70008861  0.67931754    -0.86400
O380        O  0.13340810  0.58956078  0.73252417    -0.86500
O381        O  0.22453156  0.71616368  0.70284972    -0.88200
O382        O  0.29017872  0.65966657  0.73291692    -0.87000
O383        O  0.29508208  0.59459474  0.73341624    -0.86600
O384        O  0.17916633  0.69035155  0.68037440    -0.87900
O385        O  0.19954568  0.65878020  0.73295061    -0.86400
O386        O  0.31540839  0.72189634  0.70111679    -0.86000
Zr387      Zr  0.24363383  0.65791061  0.71011923     2.84300
O388        O  0.20911910  0.58321648  0.71982646    -1.08000
O389        O  0.24260519  0.65679587  0.68203644    -1.08700
C390        C  0.34472056  0.72943331  0.68993084     1.06700
C391        C  0.15998999  0.62955728  0.73843502     1.06700
C392        C  0.20064655  0.72008207  0.69151655     1.09700
C393        C  0.30398587  0.63367872  0.73909944     1.07400
H394        H  0.15145109  0.63126946  0.70478189     0.33000
O395        O  0.16813254  0.61695208  0.70102727    -1.28900
H396        H  0.31580882  0.64048691  0.70474965     0.32700
O397        O  0.28469613  0.62360071  0.70106363    -1.30600
O398        O  0.07448561  0.46454919  0.70417919    -0.86400
O399        O  0.28228038  0.57496997  0.65063454    -0.87900
O400        O  0.09005949  0.59723664  0.67956158    -0.86400
O401        O  0.20519412  0.50476432  0.73376409    -0.86500
O402        O  0.32474137  0.56329948  0.70274776    -0.86200
O403        O  0.21263480  0.66266996  0.65044932    -0.86000
O404        O  0.12629060  0.50428036  0.65087124    -0.86400
O405        O  0.19159978  0.44814465  0.68010352    -0.85800
O406        O  0.12282344  0.57009228  0.65015746    -0.86900
O407        O  0.23737649  0.47387599  0.70248820    -0.86100
O408        O  0.07094840  0.55277022  0.70222799    -0.86500
O409        O  0.28191908  0.66604850  0.65007516    -0.86200
O410        O  0.34380845  0.60680447  0.67982888    -0.85800
O411        O  0.13534207  0.50011337  0.73428818    -0.86200
O412        O  0.09942291  0.44394399  0.68178474    -0.86500
O413        O  0.21698966  0.50508100  0.65060438    -0.87900
Zr414      Zr  0.13383144  0.54218525  0.71064337     2.83100
Zr415      Zr  0.28279779  0.62187029  0.67291766     2.83500
Zr416      Zr  0.16740759  0.61585571  0.67291200     2.84100
Zr417      Zr  0.24945857  0.54846995  0.71063525     2.83400
Zr418      Zr  0.17296733  0.50658266  0.67343417     2.84200
O419        O  0.24819576  0.54739893  0.68256387    -1.08400
O420        O  0.13225439  0.54092074  0.68251062    -1.08000
C421        C  0.07033651  0.43601815  0.69310509     1.06700
C422        C  0.25609130  0.53466776  0.64486861     1.09300
C423        C  0.06234191  0.57347651  0.69090090     1.06900
C424        C  0.16575119  0.49173781  0.74006177     1.07200
C425        C  0.35166053  0.58503047  0.69095593     1.06800
C426        C  0.25250046  0.67598622  0.64449544     1.06400
C427        C  0.11325090  0.53073811  0.64465986     1.06800
C428        C  0.21593952  0.44435124  0.69124445     1.06300
H429        H  0.20742015  0.58077562  0.65194599     0.33000
O430        O  0.20763665  0.58115180  0.66355286    -1.29500
H431        H  0.15999337  0.47637349  0.70563607     0.33000
O432        O  0.17405188  0.50710739  0.70158900    -1.30900
O433        O  0.21474176  0.50917273  0.14996145    -0.86400
O434        O  0.33312895  0.71717425  0.20369648    -0.86500
O435        O  0.28646062  0.66014477  0.14973923    -0.88200
O436        O  0.34736368  0.60143237  0.18022929    -0.87000
O437        O  0.32112793  0.55405804  0.20217211    -0.86600
O438        O  0.22288738  0.66763181  0.15011155    -0.87900
O439        O  0.35135746  0.69182313  0.18081770    -0.86400
O440        O  0.28550049  0.57331244  0.15009013    -0.86000
Zr441      Zr  0.28756502  0.61821177  0.17324998     2.84300
O442        O  0.28850771  0.61751911  0.20135021    -1.08000
O443        O  0.21265455  0.58531654  0.16404396    -1.08700
C444        C  0.25483470  0.53507766  0.14405272     1.06700
C445        C  0.36053290  0.72092232  0.19225377     1.06700
C446        C  0.26027814  0.67382730  0.14375015     1.09700
C447        C  0.35114971  0.57674419  0.19124577     1.07400
H448        H  0.27193824  0.69138712  0.17898990     0.33000
O449        O  0.25504630  0.66045222  0.18287555    -1.28900
H450        H  0.26043055  0.52571965  0.17815288     0.32700
O451        O  0.24674069  0.54271991  0.18222492    -1.30600
O452        O  0.21273527  0.66141557  0.23443878    -0.86400
O453        O  0.09501938  0.45134214  0.18061217    -0.87900
O454        O  0.19603836  0.70186610  0.18180668    -0.86400
O455        O  0.29424858  0.58518338  0.23308150    -0.86500
O456        O  0.22545248  0.46441697  0.20304522    -0.86200
O457        O  0.13044864  0.58160330  0.15154275    -0.86000
O458        O  0.08175204  0.57114538  0.20507599    -0.86400
O459        O  0.13663889  0.50258496  0.23290586    -0.85800
O460        O  0.10654827  0.61734643  0.18282012    -0.86900
O461        O  0.20101031  0.49650492  0.23295467    -0.86100
O462        O  0.24074545  0.72052624  0.20445471    -0.86500
O463        O  0.12700649  0.51233072  0.15052870    -0.86200
O464        O  0.18068703  0.44615187  0.18045558    -0.85800
O465        O  0.30119152  0.65609506  0.23343081    -0.86200
O466        O  0.14176269  0.59750455  0.23398691    -0.86500
O467        O  0.07620483  0.47752474  0.20313006    -0.87900
Zr468      Zr  0.25580813  0.65925224  0.21115156     2.83100
Zr469      Zr  0.17151695  0.51035580  0.17314463     2.83500
Zr470      Zr  0.17930440  0.62630014  0.17381060     2.84100
Zr471      Zr  0.24701480  0.54228882  0.21038059     2.83400
Zr472      Zr  0.13961515  0.55132023  0.21105857     2.84200
O473        O  0.17201429  0.50953778  0.20125237    -1.08400
O474        O  0.18094173  0.62617217  0.20190066    -1.08000
C475        C  0.17216296  0.63584121  0.24011162     1.06700
C476        C  0.06760599  0.44761569  0.19202538     1.09300
C477        C  0.21837065  0.72851760  0.19357211     1.06900
C478        C  0.30948895  0.62544615  0.23900427     1.07200
C479        C  0.20106837  0.43696244  0.19170864     1.06800
C480        C  0.11656390  0.54179218  0.14537900     1.06400
C481        C  0.07776271  0.59615175  0.19427064     1.06800
C482        C  0.16185902  0.48732420  0.23855340     1.06300
H483        H  0.10662713  0.53749725  0.17925102     0.33000
O484        O  0.13773005  0.55123042  0.18292334    -1.29500
H485        H  0.21460484  0.58359795  0.23202818     0.33000
O486        O  0.21447868  0.58404613  0.22041289    -1.30900
O487        O  0.87340711  0.99458785  0.56639124    -0.86400
O488        O  0.75902237  0.78197151  0.51428391    -0.86500
O489        O  0.74395018  0.90173286  0.53756483    -0.88200
O490        O  0.80223714  0.83817523  0.56717247    -0.87000
O491        O  0.86757285  0.83381404  0.56755398    -0.86600
O492        O  0.76896657  0.94776875  0.51526334    -0.87900
O493        O  0.73985845  0.80746963  0.53690375    -0.86400
O494        O  0.80358406  0.92916555  0.56704880    -0.86000
Zr495      Zr  0.80244230  0.88301812  0.54433171     2.84300
O496        O  0.83640364  0.84202916  0.53519074    -1.08000
O497        O  0.84279470  0.95788096  0.53472847    -1.08700
C498        C  0.83356863  0.96855548  0.57255269     1.06700
C499        C  0.73153418  0.77763572  0.52575657     1.06700
C500        C  0.73995236  0.92645474  0.52661459     1.09700
C501        C  0.82864502  0.82489868  0.57328036     1.07400
H502        H  0.76991113  0.86728635  0.51245666     0.33000
O503        O  0.80102550  0.88162524  0.51619808    -1.28900
H504        H  0.87831130  0.91869668  0.56521708     0.32700
O505        O  0.87777600  0.91806827  0.55359608    -1.30600
O506        O  0.87948297  0.83871134  0.48411305    -0.86400
O507        O  0.99540599  0.05026651  0.53605902    -0.87900
O508        O  0.79486745  0.90985088  0.48428956    -0.86400
O509        O  0.89194643  0.79888683  0.53825036    -0.86500
O510        O  0.96071674  0.92361473  0.56623090    -0.86200
O511        O  0.86013590  0.03381560  0.51344870    -0.86000
O512        O  0.94984774  0.99385963  0.48302804    -0.86400
O513        O  0.01085760  0.93374104  0.51384138    -0.85800
O514        O  0.88504888  0.99925925  0.48324336    -0.86900
O515        O  0.98566120  0.88896209  0.53644593    -0.86100
O516        O  0.79141073  0.84051172  0.48402844    -0.86500
O517        O  0.90700260  0.05542099  0.53556704    -0.86200
O518        O  0.96446905  0.99307649  0.56629200    -0.85800
O519        O  0.84497973  0.77762066  0.51618347    -0.86200
O520        O  0.94932880  0.90407056  0.48364289    -0.86500
O521        O  0.01449380  0.02437538  0.51351446    -0.87900
Zr522      Zr  0.83575989  0.84087520  0.50707731     2.83100
Zr523      Zr  0.91818300  0.99259964  0.54369877     2.83500
Zr524      Zr  0.84163077  0.95644270  0.50663571     2.84100
Zr525      Zr  0.91167655  0.87700797  0.54429203     2.83400
Zr526      Zr  0.95093069  0.95011071  0.50629491     2.84200
O527        O  0.95200003  0.95142600  0.53443161    -1.08400
O528        O  0.87564736  0.91544894  0.49729217    -1.08000
C529        C  0.91925342  0.86501155  0.47799226     1.06700
C530        C  0.02305056  0.05400375  0.52470204     1.09300
C531        C  0.78176482  0.87000732  0.47830390     1.06900
C532        C  0.86628503  0.76981260  0.52751630     1.07200
C533        C  0.97495010  0.96400601  0.57190261     1.06800
C534        C  0.88475881  0.06263887  0.52443233     1.06400
C535        C  0.92336170  0.00745364  0.47713914     1.06800
C536        C  0.01526796  0.91061710  0.52533286     1.06300
H537        H  0.93396633  0.02226105  0.51141723     0.33000
O538        O  0.91730333  0.99154608  0.51551652    -1.29500
H539        H  0.92510259  0.85813578  0.51230500     0.33000
O540        O  0.91113985  0.87519756  0.51608561    -1.30900
C541        C  0.95093068  0.13557687  0.92342608     0.20500
C542        C  0.91925172  0.11100401  0.93542202    -0.39400
C543        C  0.93184437  0.08775821  0.94617504     0.19400
C544        C  0.97297941  0.08869462  0.94517161     0.22100
C545        C  0.00512142  0.11371230  0.93308128    -0.39900
C546        C  0.99238263  0.13722962  0.92217944     0.20900
N547        N  0.94614412  0.16006281  0.91183089    -0.33200
C548        C  0.98467231  0.17799355  0.90293263    -0.10800
C549        C  0.01466644  0.16455904  0.90898407    -0.29600
N550        N  0.97588803  0.06270548  0.95686478    -0.46200
C551        C  0.93614972  0.04528614  0.96519765    -0.05400
C552        C  0.90811053  0.06041149  0.95887335    -0.22800
H553        H  0.88687430  0.10986449  0.93625718     0.19000
H554        H  0.03733908  0.11456456  0.93217627     0.17800
H555        H  0.04792562  0.17344944  0.90438919     0.14100
H556        H  0.87452662  0.05211432  0.96293545     0.13900
H557        H  0.91799922  0.16431678  0.91012335     0.32100
H558        H  0.00290575  0.05690608  0.95895660     0.34900
C559        C  0.79912323  0.26395360  0.85684119     0.20500
C560        C  0.84368088  0.27956275  0.85107136    -0.39400
C561        C  0.86928987  0.26398192  0.85956732     0.19400
C562        C  0.85138387  0.23532945  0.87269662     0.22100
C563        C  0.80746409  0.22008071  0.87842636    -0.39900
C564        C  0.78222312  0.23539662  0.87002414     0.20900
N565        N  0.76745791  0.27325672  0.85110005    -0.33200
C566        C  0.73057635  0.25028467  0.86081676    -0.10800
C567        C  0.73874948  0.22642643  0.87269919    -0.29600
N568        N  0.88127692  0.22463755  0.87870463    -0.46200
C569        C  0.91907725  0.24628966  0.86948919    -0.05400
C570        C  0.91315753  0.27150225  0.85733946    -0.22800
H571        H  0.85724661  0.30189456  0.84076889     0.19000
H572        H  0.79382373  0.19763706  0.88870442     0.17800
H573        H  0.71590491  0.20538761  0.88213158     0.14100
H574        H  0.93729479  0.29206707  0.84814298     0.13900
H575        H  0.77076060  0.29396184  0.84130468     0.32100
H576        H  0.87594492  0.20341481  0.88855528     0.34900
C577        C  0.15334749  0.39548719  0.80127256     0.20500
C578        C  0.18460139  0.42175944  0.78940234    -0.39400
C579        C  0.16733212  0.43587094  0.77684477     0.19400
C580        C  0.12230716  0.42511223  0.77606449     0.22100
C581        C  0.09066535  0.39846113  0.78804560    -0.39900
C582        C  0.10807495  0.38404334  0.80073735     0.20900
N583        N  0.16170406  0.37707973  0.81410483    -0.33200
C584        C  0.12162976  0.35329774  0.82197191    -0.10800
C585        C  0.08715749  0.35696301  0.81408070    -0.29600
N586        N  0.11516895  0.44355178  0.76277192    -0.46200
C587        C  0.15611578  0.46582753  0.75518241    -0.05400
C588        C  0.18916682  0.46153858  0.76362374    -0.22800
H589        H  0.21988800  0.43031844  0.78985176     0.19000
H590        H  0.05527917  0.38948547  0.78749669     0.17800
H591        H  0.05159457  0.34097919  0.81737488     0.14100
H592        H  0.22473199  0.47575547  0.76055810     0.13900
H593        H  0.19289014  0.37989485  0.81714191     0.32100
H594        H  0.08459730  0.44114304  0.75911101     0.34900
C595        C  0.25774062  0.29926182  0.85312734     0.20500
C596        C  0.30178970  0.31419610  0.84757819    -0.39400
C597        C  0.32351166  0.29242308  0.85422185     0.19400
C598        C  0.30332247  0.25843578  0.86567034     0.22100
C599        C  0.25898219  0.24364698  0.87139347    -0.39900
C600        C  0.23684993  0.26544526  0.86460703     0.20900
N601        N  0.22972534  0.31354069  0.84799727    -0.33200
C602        C  0.19025843  0.28888608  0.85613479    -0.10800
C603        C  0.19327941  0.25850083  0.86675447    -0.29600
N604        N  0.33142884  0.24269268  0.86968073    -0.46200
C605        C  0.36932854  0.26692157  0.86057172    -0.05400
C606        C  0.36551018  0.29820832  0.85086119    -0.22800
H607        H  0.31767007  0.34030127  0.83846217     0.19000
H608        H  0.24269715  0.21672637  0.88020032     0.17800
H609        H  0.16694003  0.23391742  0.87456788     0.14100
H610        H  0.39009795  0.32181087  0.84232969     0.13900
H611        H  0.23694065  0.33822758  0.83919795     0.32100
H612        H  0.32506881  0.21688413  0.87789359     0.27100
C613        C  0.04196043  0.49129394  0.11171760     0.20500
C614        C  0.01866245  0.45966358  0.09932789    -0.39400
C615        C  0.99048153  0.46912400  0.08957957     0.19400
C616        C  0.98598101  0.50695220  0.09222003     0.22100
C617        C  0.00858241  0.53794643  0.10463109    -0.39900
C618        C  0.03694908  0.52888630  0.11413410     0.20900
N619        N  0.07141474  0.49095650  0.12249162    -0.33200
C620        C  0.08511834  0.52877763  0.13166328    -0.10800
C621        C  0.06443546  0.55324829  0.12674207    -0.29600
N622        N  0.96020134  0.51062689  0.08087263    -0.46200
C623        C  0.94810969  0.47525666  0.07069698    -0.05400
C624        C  0.96578629  0.44795941  0.07580297    -0.22800
H625        H  0.02301947  0.43061880  0.09720215     0.19000
H626        H  0.00535864  0.56779229  0.10644259     0.17800
H627        H  0.06860683  0.58448351  0.13182500     0.14100
H628        H  0.96308182  0.41839037  0.06981443     0.13900
H629        H  0.08151125  0.46662229  0.12354485     0.32100
H630        H  0.95266274  0.53682796  0.07982517     0.34900
C631        C  0.90721488  0.61660433  0.03692729     0.20500
C632        C  0.92119019  0.66017749  0.04285857    -0.39400
C633        C  0.90546056  0.68506183  0.03438452     0.19400
C634        C  0.87779077  0.66811739  0.02096703     0.22100
C635        C  0.86396257  0.62422727  0.01491442    -0.39900
C636        C  0.87981769  0.59902187  0.02346806     0.20900
N637        N  0.91693384  0.58628016  0.04324677    -0.33200
C638        C  0.89576035  0.54863271  0.03388100    -0.10800
C639        C  0.87224461  0.55518053  0.02129540    -0.29600
N640        N  0.86666389  0.69868581  0.01545361    -0.46200
C641        C  0.88752958  0.73503398  0.02553157    -0.05400
C642        C  0.91207622  0.72763268  0.03740084    -0.22800
H643        H  0.94234788  0.67352740  0.05346957     0.19000
H644        H  0.84209393  0.61054855  0.00449334     0.17800
H645        H  0.85187523  0.53105551  0.01205280     0.14100
H646        H  0.93161799  0.75017966  0.04714436     0.13900
H647        H  0.93660534  0.59094147  0.05350933     0.32100
H648        H  0.84587826  0.69487484  0.00561886     0.34900
C649        C  0.84092567  0.13969933  0.02063257     0.20500
C650        C  0.81734657  0.15958071  0.01398119    -0.39400
C651        C  0.83275511  0.20452759  0.01854957     0.19400
C652        C  0.86891471  0.22839971  0.02898283     0.22100
C653        C  0.89235155  0.20813149  0.03585081    -0.39900
C654        C  0.87683245  0.16275283  0.03124732     0.20900
N655        N  0.83356910  0.09781124  0.01763683    -0.33200
C656        C  0.86483522  0.09373577  0.02642966    -0.10800
C657        C  0.89242081  0.13342312  0.03516931    -0.29600
N658        N  0.87807576  0.27178619  0.03056496    -0.46200
C659        C  0.84747432  0.27493370  0.02093011    -0.05400
C660        C  0.81868666  0.23361534  0.01340350    -0.22800
H661        H  0.78963660  0.14166948  0.00554530     0.19000
H662        H  0.92102640  0.22651413  0.04386510     0.17800
H663        H  0.92053626  0.14014684  0.04303559     0.14100
H664        H  0.79188827  0.22624256  0.00479985     0.13900
H665        H  0.80887583  0.07355123  0.00999387     0.32100
H666        H  0.90418467  0.29775172  0.03728314     0.34900
C667        C  0.76165168  0.35970377  0.96448246     0.20500
C668        C  0.74382281  0.37785422  0.95327201    -0.39400
C669        C  0.71822540  0.34844748  0.94059302     0.19400
C670        C  0.71168616  0.30489013  0.93923893     0.22100
C671        C  0.72977144  0.28720177  0.95020216    -0.39900
C672        C  0.75452545  0.31603574  0.96280606     0.20900
N673        N  0.78603685  0.37941623  0.97793004    -0.33200
C674        C  0.79386766  0.34747514  0.98463652    -0.10800
C675        C  0.77468449  0.30780604  0.97550146    -0.29600
N676        N  0.68518525  0.28285779  0.92667189    -0.46200
C677        C  0.67407980  0.31208823  0.91983529    -0.05400
C678        C  0.69423588  0.35367063  0.92809727    -0.22800
H679        H  0.74867382  0.41174883  0.95449651     0.19000
H680        H  0.72409745  0.25293970  0.94918451     0.17800
H681        H  0.77514689  0.27667687  0.97789406     0.14100
H682        H  0.69103186  0.38319147  0.92551155     0.13900
H683        H  0.79637312  0.41204883  0.98227481     0.32100
H684        H  0.67466244  0.24948045  0.92313479     0.34900
C685        C  0.90201224  0.59664229  0.19789294     0.20500
C686        C  0.92283199  0.57387330  0.20494546    -0.39400
C687        C  0.96836743  0.58968584  0.20035844     0.19400
C688        C  0.99109519  0.62535565  0.18964964     0.22100
C689        C  0.97082774  0.64855326  0.18297024    -0.39900
C690        C  0.92574125  0.63274998  0.18745563     0.20900
N691        N  0.85818114  0.58656418  0.19911973    -0.33200
C692        C  0.85467597  0.61657485  0.18924405    -0.10800
C693        C  0.89622237  0.64588694  0.18197486    -0.29600
N694        N  0.03273425  0.63230937  0.18634315    -0.46200
C695        C  0.03706125  0.60096245  0.19498983    -0.05400
C696        C  0.99778214  0.57392139  0.20403433    -0.22800
H697        H  0.90458686  0.54511348  0.21292294     0.19000
H698        H  0.98838305  0.67592219  0.17439744     0.17800
H699        H  0.90347879  0.67230750  0.17322887     0.14100
H700        H  0.99113882  0.54565187  0.21179577     0.13900
H701        H  0.83220222  0.56020049  0.20573264     0.32100
H702        H  0.05652459  0.65653983  0.17847500     0.34900
C703        C  0.83228824  0.75978434  0.10795935     0.20500
C704        C  0.84913303  0.74097556  0.11903962    -0.39400
C705        C  0.81951166  0.71586462  0.13148037     0.19400
C706        C  0.77612144  0.70954167  0.13297561     0.22100
C707        C  0.75920155  0.72878255  0.12183658    -0.39900
C708        C  0.78910808  0.75418187  0.10925283     0.20900
N709        N  0.85404718  0.78462705  0.09499229    -0.33200
C710        C  0.82477872  0.79525174  0.08781398    -0.10800
C711        C  0.78383751  0.77697586  0.09637086    -0.29600
N712        N  0.75493124  0.68349795  0.14597982    -0.46200
C713        C  0.78554576  0.67361571  0.15264591    -0.05400
C714        C  0.82595824  0.69334252  0.14388409    -0.22800
H715        H  0.88289530  0.74537460  0.11800315     0.19000
H716        H  0.72536133  0.72417418  0.12282562     0.17800
H717        H  0.75426251  0.77982896  0.09351094     0.14100
H718        H  0.85626652  0.69132202  0.14625037     0.13900
H719        H  0.88690833  0.79372285  0.09125235     0.32100
H720        H  0.72205209  0.67319750  0.15002493     0.34900
C721        C  0.64843547  0.46000335  0.25267601     0.20500
C722        C  0.66484818  0.44079908  0.26398658    -0.39400
C723        C  0.63408021  0.41462331  0.27622237     0.19400
C724        C  0.59054241  0.40829310  0.27708360     0.22100
C725        C  0.57423070  0.42728514  0.26585827    -0.39900
C726        C  0.60473376  0.45311826  0.25370937     0.20900
N727        N  0.67055637  0.48659282  0.23990590    -0.33200
C728        C  0.64029141  0.49633412  0.23289661    -0.10800
C729        C  0.59906354  0.47589441  0.24120218    -0.29600
N730        N  0.56787561  0.38240174  0.28975179    -0.46200
C731        C  0.59698393  0.37190213  0.29712690    -0.05400
C732        C  0.63869112  0.39132373  0.28903775    -0.22800
H733        H  0.69891826  0.44586615  0.26333659     0.19000
H734        H  0.54019723  0.42234434  0.26653969     0.17800
H735        H  0.56882954  0.47776872  0.23851201     0.14100
H736        H  0.66831047  0.38878164  0.29213143     0.13900
H737        H  0.70389042  0.49747413  0.23625904     0.32100
H738        H  0.53455664  0.37248032  0.29315637     0.34900
C739        C  0.50683977  0.54437195  0.19820461     0.20500
C740        C  0.46126285  0.52556578  0.20264045    -0.39400
C741        C  0.43950721  0.54845534  0.19704271     0.19400
C742        C  0.46112091  0.58701150  0.18753299     0.22100
C743        C  0.50713799  0.60590510  0.18298521    -0.39900
C744        C  0.52929534  0.58297245  0.18874652     0.20900
N745        N  0.53508049  0.53003735  0.20296081    -0.33200
C746        C  0.57631951  0.55951234  0.19667846    -0.10800
C747        C  0.57421867  0.59301620  0.18752535    -0.29600
N748        N  0.43234865  0.60229384  0.18399353    -0.46200
C749        C  0.39258974  0.57321379  0.19146741    -0.05400
C750        C  0.39594244  0.53938518  0.19971535    -0.22800
H751        H  0.44424708  0.49576753  0.21025054     0.19000
H752        H  0.52452861  0.63650157  0.17578987     0.17800
H753        H  0.60199133  0.62181762  0.18152026     0.14100
H754        H  0.36990120  0.51178885  0.20675218     0.13900
H755        H  0.52688562  0.50237986  0.21051961     0.32100
H756        H  0.43940174  0.63085076  0.17712053     0.34900
C757        C  0.31713407  0.79673663  0.58679050     0.20500
C758        C  0.33305068  0.77559717  0.59745688    -0.39400
C759        C  0.30213050  0.74846771  0.60950013     0.19400
C760        C  0.25890823  0.74287199  0.61066824     0.22100
C761        C  0.24306510  0.76354538  0.60005545    -0.39900
C762        C  0.27376985  0.79056738  0.58822059     0.20900
N763        N  0.33944714  0.82484853  0.57438746    -0.33200
C764        C  0.30954870  0.83622570  0.56811701    -0.10800
C765        C  0.26851751  0.81543365  0.57646732    -0.29600
N766        N  0.23614473  0.71636669  0.62314176    -0.46200
C767        C  0.26485566  0.70477056  0.63012380    -0.05400
C768        C  0.30643629  0.72400611  0.62196921    -0.22800
H769        H  0.36691651  0.78022671  0.59656047     0.19000
H770        H  0.20934866  0.75929172  0.60104779     0.17800
H771        H  0.23858986  0.81826807  0.57426235     0.14100
H772        H  0.33582726  0.72086136  0.62486395     0.13900
H773        H  0.37257779  0.83562915  0.57051406     0.32100
H774        H  0.20309468  0.70699922  0.62673019     0.34900
C775        C  0.17721692  0.89179802  0.53755387     0.20500
C776        C  0.13269878  0.87499225  0.54292268    -0.39400
C777        C  0.10781839  0.89119477  0.53479761     0.19400
C778        C  0.12572216  0.92205944  0.52226640     0.22100
C779        C  0.17068780  0.93892435  0.51681359    -0.39900
C780        C  0.19587007  0.92242996  0.52498362     0.20900
N781        N  0.20717335  0.88111681  0.54344977    -0.33200
C782        C  0.24562876  0.90466747  0.53466312    -0.10800
C783        C  0.24014432  0.93112098  0.52294451    -0.29600
N784        N  0.09478867  0.93278229  0.51692372    -0.46200
C785        C  0.05735922  0.90847131  0.52623456    -0.05400
C786        C  0.06428127  0.88206765  0.53742368    -0.22800
H787        H  0.11851418  0.85109049  0.55279172     0.19000
H788        H  0.18497622  0.96311633  0.50704331     0.17800
H789        H  0.26487465  0.95337451  0.51418867     0.14100
H790        H  0.04081950  0.85975402  0.54649037     0.13900
H791        H  0.20144415  0.85868410  0.55294187     0.32100
H792        H  0.09906968  0.95560285  0.50774496     0.34900
C793        C  0.45432527  0.08596365  0.44166084     0.20500
C794        C  0.42177777  0.06014370  0.45353857    -0.39400
C795        C  0.43751514  0.04393537  0.46620383     0.19400
C796        C  0.48214361  0.05330517  0.46680814     0.22100
C797        C  0.51430498  0.07897827  0.45511364    -0.39900
C798        C  0.49866255  0.09462244  0.44254761     0.20900
N799        N  0.44875946  0.10543921  0.42837100    -0.33200
C800        C  0.48994198  0.12624414  0.42089368    -0.10800
C801        C  0.52167174  0.12001484  0.42939997    -0.29600
N802        N  0.48908284  0.03374542  0.47956420    -0.46200
C803        C  0.44879725  0.01123409  0.48735990    -0.05400
C804        C  0.41545806  0.01683185  0.47946341    -0.22800
H805        H  0.38694261  0.05294266  0.45289666     0.19000
H806        H  0.54904774  0.08585432  0.45568175     0.17800
H807        H  0.55711973  0.13289559  0.42646522     0.14100
H808        H  0.38002231  0.00236117  0.48274633     0.13900
H809        H  0.41904120  0.10481533  0.42467200     0.32100
H810        H  0.51963708  0.03518027  0.48262532     0.34900
C811        C  0.56550791  0.92963287  0.53035462     0.20500
C812        C  0.58529377  0.90530623  0.53692495    -0.39400
C813        C  0.63050446  0.92020699  0.53218193     0.19400
C814        C  0.65385073  0.95636208  0.52171279     0.22100
C815        C  0.63448253  0.98086452  0.51539376    -0.39900
C816        C  0.58973429  0.96610071  0.52010427     0.20900
N817        N  0.52228502  0.92106330  0.53201272    -0.33200
C818        C  0.51955529  0.95234944  0.52260281    -0.10800
C819        C  0.56107470  0.98102827  0.51518930    -0.29600
N820        N  0.69543228  0.96300702  0.51851052    -0.46200
C821        C  0.69910806  0.93104904  0.52702779    -0.05400
C822        C  0.65938686  0.90375556  0.53580197    -0.22800
H823        H  0.56665084  0.87639248  0.54480522     0.19000
H824        H  0.65260101  0.00878843  0.50707043     0.17800
H825        H  0.56880569  0.00822147  0.50673546     0.14100
H826        H  0.65233689  0.87526170  0.54350625     0.13900
H827        H  0.49611666  0.89484043  0.53861108     0.32100
H828        H  0.71978448  0.98773731  0.51091864     0.34900
C829        C  0.20663838  0.82794772  0.69652040     0.20500
C830        C  0.22064624  0.87137580  0.70305569    -0.39400
C831        C  0.20420641  0.89696520  0.69512752     0.19400
C832        C  0.17591349  0.87996731  0.68186083     0.22100
C833        C  0.16171573  0.83682899  0.67546995    -0.39900
C834        C  0.17824867  0.81168304  0.68325779     0.20900
N835        N  0.21826555  0.79726529  0.70139023    -0.33200
C836        C  0.19710795  0.76159098  0.69105518    -0.10800
C837        C  0.17181998  0.76945825  0.67963867    -0.29600
N838        N  0.16577114  0.91049970  0.67611356    -0.46200
C839        C  0.18761153  0.94778202  0.68561957    -0.05400
C840        C  0.21202932  0.94076811  0.69775332    -0.22800
H841        H  0.24316858  0.88448707  0.71333488     0.19000
H842        H  0.13993647  0.82408277  0.66498379     0.17800
H843        H  0.15180559  0.74742115  0.66985653     0.14100
H844        H  0.23313245  0.96454749  0.70696510     0.13900
H845        H  0.23953378  0.80055196  0.71100328     0.32100
H846        H  0.14544792  0.90620845  0.66607451     0.34900
C847        C  0.04652064  0.97267776  0.60476628     0.20500
C848        C  0.06810877  0.95721129  0.61516850    -0.39400
C849        C  0.09216554  0.98635728  0.62785488     0.19400
C850        C  0.09527303  0.02820598  0.63014599     0.22100
C851        C  0.07388535  0.04407442  0.61951715    -0.39900
C852        C  0.04918814  0.01445596  0.60675103     0.20900
N853        N  0.02027903  0.95012618  0.59215916    -0.33200
C854        C  0.00566598  0.97737045  0.58591421    -0.10800
C855        C  0.02310926  0.01802476  0.59464335    -0.29600
N856        N  0.11955074  0.04851525  0.64358773    -0.46200
C857        C  0.13139328  0.01878262  0.64973300    -0.05400
C858        C  0.11491432  0.97997282  0.64016696    -0.22800
H859        H  0.06559132  0.92433531  0.61367934     0.19000
H860        H  0.07559458  0.07650541  0.62121115     0.17800
H861        H  0.01696493  0.04596574  0.59256641     0.14100
H862        H  0.11856613  0.95040847  0.64209244     0.13900
H863        H  0.01245686  0.91782534  0.58814729     0.32100
H864        H  0.12697792  0.07997771  0.64834806     0.34900
C865        C  0.21915740  0.26969521  0.68916773     0.20500
C866        C  0.19746003  0.29036484  0.68122929    -0.39400
C867        C  0.21064405  0.33501657  0.68624732     0.19400
C868        C  0.24283258  0.35693623  0.69819798     0.22100
C869        C  0.26467872  0.33668430  0.70590579    -0.39900
C870        C  0.25158246  0.29254324  0.70095038     0.20900
N871        N  0.21179516  0.22695631  0.68731708    -0.33200
C872        C  0.23984121  0.22324054  0.69810541    -0.10800
C873        C  0.26514404  0.26355603  0.70667365    -0.29600
N874        N  0.24861595  0.39819669  0.70129384    -0.46200
C875        C  0.22004893  0.40320270  0.69128134    -0.05400
C876        C  0.19580160  0.36457014  0.68159247    -0.22800
H877        H  0.17175392  0.27280467  0.67209475     0.19000
H878        H  0.28951522  0.35378816  0.71534406     0.17800
H879        H  0.28953186  0.27042707  0.71620069     0.14100
H880        H  0.17031056  0.35864431  0.67261056     0.13900
H881        H  0.18867580  0.20182167  0.67953372     0.32100
H882        H  0.27056187  0.42146652  0.70982782     0.34900
C883        C  0.38049761  0.16190871  0.77747215     0.20500
C884        C  0.35290458  0.12859278  0.76608175    -0.39400
C885        C  0.33494744  0.14349473  0.75375234     0.19400
C886        C  0.34410161  0.18804119  0.75304686     0.22100
C887        C  0.37142583  0.22101655  0.76430891    -0.39900
C888        C  0.38909276  0.20622827  0.77649347     0.20900
N889        N  0.40180047  0.15706450  0.79035560    -0.33200
C890        C  0.42374289  0.19868999  0.79748150    -0.10800
C891        C  0.41649008  0.23003657  0.78916238    -0.29600
N892        N  0.32319478  0.19415712  0.74052005    -0.46200
C893        C  0.30019078  0.15344012  0.73295087    -0.05400
C894        C  0.30665969  0.12065224  0.74081685    -0.22800
H895        H  0.34589981  0.09383182  0.76678852     0.19000
H896        H  0.37828632  0.25575282  0.76365276     0.17800
H897        H  0.42973424  0.26564238  0.79196749     0.14100
H898        H  0.29233799  0.08514764  0.73764743     0.13900
H899        H  0.40141022  0.12747214  0.79406567     0.32100
H900        H  0.32442270  0.22456938  0.73738702     0.34900
C901        C  0.55440945  0.00832639  0.35188584     0.20500
C902        C  0.53810571  0.96376489  0.34604961    -0.39400
C903        C  0.55467353  0.93833012  0.35399476     0.19400
C904        C  0.58535207  0.95662918  0.36657636     0.22100
C905        C  0.60216067  0.00102212  0.37216680    -0.39900
C906        C  0.58536875  0.02596181  0.36441185     0.20900
N907        N  0.54166253  0.03838177  0.34733682    -0.33200
C908        C  0.56444022  0.07489637  0.35720103    -0.10800
C909        C  0.59234657  0.06847362  0.36787402    -0.29600
N910        N  0.59472324  0.92592435  0.37265770    -0.46200
C911        C  0.57009244  0.88723537  0.36405493    -0.05400
C912        C  0.54454518  0.89347487  0.35215220    -0.22800
H913        H  0.51333276  0.94953943  0.33643859     0.19000
H914        H  0.62552698  0.01462375  0.38221666     0.17800
H915        H  0.61352669  0.09113277  0.37733942     0.14100
H916        H  0.52122669  0.86859273  0.34363084     0.13900
H917        H  0.51793063  0.03377437  0.33846186     0.32100
H918        H  0.61648249  0.93110590  0.38233062     0.34900
C919        C  0.66754021  0.81030237  0.41879289     0.20500
C920        C  0.68748456  0.79336503  0.42957922    -0.39400
C921        C  0.71281103  0.82292021  0.44223043     0.19400
C922        C  0.71789724  0.86585811  0.44379782     0.22100
C923        C  0.69862789  0.88281806  0.43301376    -0.39900
C924        C  0.67331447  0.85343281  0.42059681     0.20900
N925        N  0.64086563  0.78915289  0.40595522    -0.33200
C926        C  0.62995929  0.81949274  0.39979015    -0.10800
C927        C  0.64968512  0.85974699  0.40860863    -0.29600
N928        N  0.74269408  0.88733010  0.45676012    -0.46200
C929        C  0.75384065  0.85819549  0.46367145    -0.05400
C930        C  0.73587558  0.81747458  0.45497275    -0.22800
H931        H  0.68316043  0.75968020  0.42834629     0.19000
H932        H  0.70257920  0.91635059  0.43432266     0.17800
H933        H  0.64688559  0.88976353  0.40656887     0.14100
H934        H  0.73917397  0.78803898  0.45761810     0.13900
H935        H  0.63069497  0.75644962  0.40172490     0.32100
H936        H  0.75149014  0.92000027  0.46065738     0.34900
C937        C  0.53342465  0.56142218  0.36425416     0.20500
C938        C  0.55396007  0.53945975  0.37216848    -0.39400
C939        C  0.53935184  0.49443061  0.36709154     0.19400
C940        C  0.50674701  0.47329076  0.35520564     0.22100
C941        C  0.48576004  0.49462148  0.34768610    -0.39900
C942        C  0.50043962  0.53912444  0.35260007     0.20900
N943        N  0.54323282  0.60518893  0.36566891    -0.33200
C944        C  0.51625760  0.61000329  0.35465737    -0.10800
C945        C  0.48907456  0.56935801  0.34651706    -0.29600
N946        N  0.50026513  0.43193001  0.35173292    -0.46200
C947        C  0.52883278  0.42601218  0.36142017    -0.05400
C948        C  0.55368374  0.46413414  0.37131475    -0.22800
H949        H  0.58034314  0.55654866  0.38112540     0.19000
H950        H  0.46089942  0.47827776  0.33819932     0.17800
H951        H  0.46530347  0.56316801  0.33683459     0.14100
H952        H  0.57957719  0.46943014  0.38003769     0.13900
H953        H  0.56759175  0.63032316  0.37315105     0.32100
H954        H  0.47811781  0.40933419  0.34308499     0.34900
C955        C  0.42294716  0.64842840  0.29650124     0.20500
C956        C  0.39618451  0.61575742  0.28507919    -0.39400
C957        C  0.37626378  0.62990759  0.27350566     0.19400
C958        C  0.38250881  0.67344183  0.27319975     0.22100
C959        C  0.40972095  0.70652745  0.28469823    -0.39900
C960        C  0.42973399  0.69219114  0.29644479     0.20900
N961        N  0.44439000  0.64235418  0.30885760    -0.33200
C962        C  0.46517983  0.68228012  0.31696192    -0.10800
C963        C  0.45708535  0.71460070  0.30958754    -0.29600
N964        N  0.35935673  0.67780185  0.26082987    -0.46200
C965        C  0.33854840  0.63668047  0.25333981    -0.05400
C966        C  0.34831457  0.60606295  0.26094786    -0.22800
H967        H  0.39094721  0.58156579  0.28528581     0.19000
H968        H  0.41462382  0.74058330  0.28457571     0.17800
H969        H  0.46895378  0.74924409  0.31341378     0.14100
H970        H  0.33652547  0.57098176  0.25772075     0.13900
H971        H  0.44437049  0.61234457  0.31168092     0.32100
H972        H  0.35786300  0.70680845  0.25767279     0.34900
C973        C  0.75537947  0.97394520  0.13673176     0.20500
C974        C  0.75107051  0.94102608  0.12563324    -0.39400
C975        C  0.77906083  0.95751310  0.11209945     0.19400
C976        C  0.80988035  0.00328557  0.10985196     0.22100
C977        C  0.81467001  0.03639611  0.12115447    -0.39900
C978        C  0.78593592  0.01988849  0.13469180     0.20900
N979        N  0.72969926  0.96683807  0.14979872    -0.33200
C980        C  0.74334057  0.00839352  0.15624589    -0.10800
C981        C  0.77889907  0.04254589  0.14727449    -0.29600
N982        N  0.83205504  0.00980401  0.09577882    -0.46200
C983        C  0.81467868  0.96780452  0.08907934    -0.05400
C984        C  0.78154487  0.93451068  0.09892173    -0.22800
H985        H  0.72654916  0.90523252  0.12717162     0.19000
H986        H  0.83805070  0.07233625  0.11933161     0.17800
H987        H  0.79544918  0.07894386  0.14916068     0.14100
H988        H  0.76203806  0.89819424  0.09675630     0.13900
H989        H  0.70315606  0.93547419  0.15374445     0.32100
H990        H  0.85712591  0.04076648  0.09099919     0.34900
C991        C  0.46424146  0.82671774  0.19776854     0.20500
C992        C  0.49402017  0.87030160  0.20409172    -0.39400
C993        C  0.53764983  0.89348795  0.19710254     0.19400
C994        C  0.55019465  0.87410789  0.18495081     0.22100
C995        C  0.52079392  0.83078978  0.17876420    -0.39900
C996        C  0.47743941  0.80811157  0.18555200     0.20900
N997        N  0.42066405  0.79796099  0.20191442    -0.33200
C998        C  0.40638955  0.76123637  0.19212364    -0.10800
C999        C  0.44092605  0.76643276  0.18179789    -0.29600
N1000       N  0.59245485  0.90277097  0.17991704    -0.46200
C1001       C  0.60754970  0.94121555  0.18874408    -0.05400
C1002       C  0.57434781  0.93684759  0.19971671    -0.22800
H1003       H  0.48374363  0.88529088  0.21350465     0.19000
H1004       H  0.53073128  0.81616026  0.16911493     0.17800
H1005       H  0.43946336  0.74288527  0.17270820     0.14100
H1006       H  0.57636530  0.96211813  0.20813342     0.13900
H1007       H  0.40175721  0.80312581  0.21071141     0.32100
H1008       H  0.60968962  0.89665803  0.17072216     0.34900
C1009       C  0.69365805  0.17801975  0.25748404     0.20500
C1010       C  0.70159391  0.20870967  0.26997825    -0.39400
C1011       C  0.66506245  0.19683852  0.28036395     0.19400
C1012       C  0.62365847  0.15714153  0.27859886     0.22100
C1013       C  0.61585200  0.12589525  0.26610789    -0.39900
C1014       C  0.65261888  0.13801130  0.25553655     0.20900
N1015       N  0.72264814  0.18313078  0.24573128    -0.33200
C1016       C  0.70049630  0.14633345  0.23601919    -0.10800
C1017       C  0.65654867  0.11696745  0.24177422    -0.29600
N1018       N  0.59414053  0.15479413  0.28991349    -0.46200
C1019       C  0.61711926  0.19348427  0.29876950    -0.05400
C1020       C  0.66147324  0.22032000  0.29318171    -0.22800
H1021       H  0.73367201  0.24015534  0.27129317     0.19000
H1022       H  0.58339431  0.09504029  0.26455139     0.17800
H1023       H  0.63077435  0.08539829  0.23643107     0.14100
H1024       H  0.68749493  0.25296138  0.29777483     0.13900
H1025       H  0.75561963  0.21066125  0.24431212     0.32100
H1026       H  0.56040686  0.12888097  0.29138698     0.34900
C1027       C  0.88414837  0.28700345  0.20304432     0.20500
C1028       C  0.91192538  0.33166111  0.20841303    -0.39400
C1029       C  0.95381849  0.35620273  0.20067416     0.19400
C1030       C  0.96731565  0.33789117  0.18845025     0.22100
C1031       C  0.93918977  0.29289111  0.18298609    -0.39900
C1032       C  0.89687037  0.26803881  0.19080511     0.20900
N1033       N  0.84326295  0.25687647  0.20884086    -0.33200
C1034       C  0.82912319  0.21799606  0.20034964    -0.10800
C1035       C  0.86164182  0.22349326  0.18887812    -0.29600
N1036       N  0.00959596  0.36837709  0.18346232    -0.46200
C1037       C  0.02273770  0.40596906  0.19270815    -0.05400
C1038       C  0.98871664  0.39958773  0.20349634    -0.22800
H1039       H  0.90184116  0.34607061  0.21809298     0.19000
H1040       H  0.94967854  0.27820903  0.17353221     0.17800
H1041       H  0.86008070  0.19832012  0.18051434     0.14100
H1042       H  0.98972094  0.42328528  0.21243075     0.13900
H1043       H  0.82613808  0.26252014  0.21819812     0.32100
H1044       H  0.02855109  0.36365402  0.17456388     0.34900
C1045       C  0.78723692  0.24375665  0.36012265     0.20500
C1046       C  0.81737578  0.23077771  0.36662896    -0.39400
C1047       C  0.85726321  0.24391599  0.35769618     0.19400
C1048       C  0.86575834  0.26772503  0.34339910     0.22100
C1049       C  0.83557006  0.28002103  0.33682089    -0.39900
C1050       C  0.79626953  0.26735535  0.34576159     0.20900
N1051       N  0.74765214  0.23673867  0.36636834    -0.33200
C1052       C  0.73189664  0.25631921  0.35587865    -0.10800
C1053       C  0.76128153  0.27556682  0.34288043    -0.29600
N1054       N  0.90617650  0.27769492  0.33740292    -0.46200
C1055       C  0.92415672  0.26033283  0.34784851    -0.05400
C1056       C  0.89456845  0.23866954  0.36070686    -0.22800
H1057       H  0.81068151  0.21261554  0.37790835     0.19000
H1058       H  0.84265144  0.29892571  0.32568671     0.17800
H1059       H  0.75755653  0.29327040  0.33267908     0.14100
H1060       H  0.89997178  0.22225971  0.37094674     0.13900
H1061       H  0.73243860  0.21989456  0.37707635     0.32100
H1062       H  0.92085455  0.29582287  0.32683583     0.34900
C1063       C  0.06844745  0.36999771  0.29477341     0.20500
C1064       C  0.06234242  0.39582752  0.28306488    -0.39400
C1065       C  0.09750381  0.41710365  0.27198399     0.19400
C1066       C  0.13608438  0.41306540  0.27237131     0.22100
C1067       C  0.14217515  0.38673978  0.28417981    -0.39900
C1068       C  0.10664298  0.36531304  0.29546397     0.20900
N1069       N  0.03959915  0.34708677  0.30662817    -0.33200
C1070       C  0.05891591  0.32727028  0.31517181    -0.10800
C1071       C  0.10103617  0.33773437  0.30861585    -0.29600
N1072       N  0.16459466  0.43754700  0.26038702    -0.46200
C1073       C  0.14356579  0.45703319  0.25252698    -0.05400
C1074       C  0.10172380  0.44490511  0.25942814    -0.22800
H1075       H  0.03237384  0.39935132  0.28269119     0.19000
H1076       H  0.17227948  0.38348355  0.28461190     0.17800
H1077       H  0.12415551  0.32675813  0.31284360     0.14100
H1078       H  0.07764241  0.45529590  0.25579547     0.13900
H1079       H  0.00835194  0.34518414  0.30874853     0.32100
H1080       H  0.19624939  0.44095959  0.25777755     0.34900
C1081       C  0.97561356  0.12052575  0.41716697     0.20500
C1082       C  0.94142924  0.10455580  0.42906577    -0.39400
C1083       C  0.94468544  0.07715978  0.44118789     0.19400
C1084       C  0.97934225  0.06686929  0.44134135     0.22100
C1085       C  0.01295686  0.08246917  0.42954173    -0.39900
C1086       C  0.00963890  0.10940354  0.41757111     0.20900
N1087       N  0.98171206  0.14814802  0.40453134    -0.33200
C1088       C  0.02003029  0.15425636  0.39709401    -0.10800
C1089       C  0.03787742  0.13037045  0.40489338    -0.29600
N1090       N  0.97585673  0.04109941  0.45404348    -0.46200
C1091       C  0.93859705  0.03441516  0.46221407    -0.05400
C1092       C  0.91800533  0.05631551  0.45457285    -0.22800
H1093       H  0.91469106  0.11308548  0.42898720     0.19000
H1094       H  0.04011886  0.07453195  0.42974806     0.17800
H1095       H  0.06833636  0.12926776  0.40187668     0.14100
H1096       H  0.88791439  0.05711704  0.45835176     0.13900
H1097       H  0.96182174  0.16249309  0.40138480     0.32100
H1098       H  0.99767043  0.02879096  0.45696484     0.34900
C1099       C  0.20984351  0.20940412  0.36757974     0.20500
C1100       C  0.23808119  0.19375850  0.37347830    -0.39400
C1101       C  0.28073566  0.21229083  0.36624488     0.19400
C1102       C  0.29439008  0.24388424  0.35393781     0.22100
C1103       C  0.26567877  0.25933506  0.34786853    -0.39900
C1104       C  0.22266882  0.24084705  0.35524585     0.20900
N1105       N  0.16832509  0.19754426  0.37293011    -0.33200
C1106       C  0.15382134  0.22128345  0.36405836    -0.10800
C1107       C  0.18677449  0.24884371  0.35278398    -0.29600
N1108       N  0.33734673  0.25688376  0.34947840    -0.46200
C1109       C  0.35077149  0.23341064  0.35912287    -0.05400
C1110       C  0.31625055  0.20523241  0.36967637    -0.22800
H1111       H  0.22778853  0.16939681  0.38321478     0.19000
H1112       H  0.27627018  0.28429737  0.33833117     0.17800
H1113       H  0.18498351  0.27182195  0.34418179     0.14100
H1114       H  0.31720506  0.18294879  0.37879133     0.13900
H1115       H  0.15098210  0.17461962  0.38223455     0.32100
H1116       H  0.35647711  0.28058652  0.34060037     0.34900
C1117       C  0.55070443  0.89757620  0.02044825     0.20500
C1118       C  0.59326484  0.91892741  0.01264550    -0.39400
C1119       C  0.62525421  0.90738212  0.01843906     0.19400
C1120       C  0.61538488  0.87702296  0.03099201     0.22100
C1121       C  0.57307735  0.85552163  0.03860511    -0.39900
C1122       C  0.54145912  0.86696427  0.03285272     0.20900
N1123       N  0.51476841  0.90364154  0.01784245    -0.33200
C1124       C  0.48291696  0.87655954  0.02877254    -0.10800
C1125       C  0.49848934  0.85317484  0.03818324    -0.29600
N1126       N  0.65134006  0.87244438  0.03463950    -0.46200
C1127       C  0.68476972  0.89999791  0.02436514    -0.05400
C1128       C  0.66980050  0.92231400  0.01399230    -0.22800
H1129       H  0.60113787  0.94316112  0.00300075     0.19000
H1130       H  0.56552903  0.83206060  0.04849758     0.17800
H1131       H  0.48102921  0.82989819  0.04799694     0.14100
H1132       H  0.68905924  0.94655191  0.00463547     0.13900
H1133       H  0.51241062  0.92527707  0.00945654     0.32100
H1134       H  0.65303226  0.85189917  0.04365602     0.34900
C1135       C  0.33896914  0.76863858  0.08197939     0.20500
C1136       C  0.34379940  0.74081972  0.09323223    -0.39400
C1137       C  0.31329544  0.72644411  0.10604962     0.19400
C1138       C  0.27998277  0.73833949  0.10755562     0.22100
C1139       C  0.27490736  0.76615565  0.09612333    -0.39900
C1140       C  0.30596201  0.78103366  0.08323272     0.20900
N1141       N  0.36541205  0.78805585  0.06919505    -0.33200
C1142       C  0.34973840  0.81339592  0.06207093    -0.10800
C1143       C  0.31230857  0.80982191  0.07040650    -0.29600
N1144       N  0.25599902  0.72069651  0.12116573    -0.46200
C1145       C  0.27477736  0.69797387  0.12829619    -0.05400
C1146       C  0.31042153  0.70073679  0.11916482    -0.22800
H1147       H  0.37012272  0.73182024  0.09224467     0.19000
H1148       H  0.24935916  0.77612144  0.09733577     0.17800
H1149       H  0.29340808  0.82694110  0.06776693     0.14100
H1150       H  0.33170821  0.68619983  0.12184750     0.13900
H1151       H  0.39324053  0.78482995  0.06571672     0.32100
H1152       H  0.22909715  0.72438835  0.12543403     0.34900
C1153       C  0.43272890  0.08294999  0.93835109     0.20500
C1154       C  0.39475814  0.05996253  0.94826543    -0.39400
C1155       C  0.39797170  0.03266009  0.96012494     0.19400
C1156       C  0.43605983  0.02831005  0.96221704     0.22100
C1157       C  0.47441195  0.05143352  0.95215200    -0.39900
C1158       C  0.47115054  0.07895528  0.94009525     0.20900
N1159       N  0.43740583  0.11069201  0.92615462    -0.33200
C1160       C  0.47908995  0.12474088  0.91986015    -0.10800
C1161       C  0.50139662  0.10574958  0.92824030    -0.29600
N1162       N  0.43019883  0.00074282  0.97483833    -0.46200
C1163       C  0.38804254  0.98795842  0.98062906    -0.05400
C1164       C  0.36718247  0.00707924  0.97165301    -0.22800
H1165       H  0.36479014  0.06319350  0.94686702     0.19000
H1166       H  0.50445744  0.04839696  0.95361664     0.17800
H1167       H  0.53490890  0.11061973  0.92590652     0.14100
H1168       H  0.33393686  0.00342136  0.97350509     0.13900
H1169       H  0.41337306  0.11927006  0.92228143     0.32100
H1170       H  0.45339456  0.99179252  0.97932132     0.34900
C1171       C  0.12059312  0.90854922  0.02767417     0.20500
C1172       C  0.14954022  0.89329518  0.03367686    -0.39400
C1173       C  0.19087601  0.90891822  0.02532975     0.19400
C1174       C  0.20177615  0.93729171  0.01211225     0.22100
C1175       C  0.17308747  0.95223062  0.00614276    -0.39900
C1176       C  0.13232412  0.93685041  0.01441190     0.20900
N1177       N  0.07948145  0.89902098  0.03325956    -0.33200
C1178       C  0.06551207  0.92159474  0.02339139    -0.10800
C1179       C  0.09763204  0.94542952  0.01153025    -0.29600
N1180       N  0.24225380  0.94753629  0.00615399    -0.46200
C1181       C  0.25802513  0.92572767  0.01547400    -0.05400
C1182       C  0.22694317  0.90110975  0.02768275    -0.22800
H1183       H  0.14059726  0.87107042  0.04401619     0.19000
H1184       H  0.18194662  0.97433288  0.99576396     0.17800
H1185       H  0.09575664  0.96615468  0.00199479     0.14100
H1186       H  0.23013599  0.88032310  0.03688032     0.13900
H1187       H  0.06201504  0.87841051  0.04306758     0.32100
H1188       H  0.25811327  0.96822053  0.99618092     0.34900
C1189       C  0.34651084  0.51098230  0.58767169     0.20500
C1190       C  0.35383976  0.54192002  0.59992611    -0.39400
C1191       C  0.31853524  0.52835648  0.61090802     0.19400
C1192       C  0.27844628  0.48703117  0.60989209     0.22100
C1193       C  0.27099331  0.45558750  0.59746734    -0.39900
C1194       C  0.30693510  0.46927494  0.58632565     0.20900
N1195       N  0.37574503  0.51669478  0.57599512    -0.33200
C1196       C  0.35558926  0.47851720  0.56690928    -0.10800
C1197       C  0.31223291  0.44774626  0.57291753    -0.29600
N1198       N  0.25026990  0.48317213  0.62200341    -0.46200
C1199       C  0.27316170  0.52251631  0.63055965    -0.05400
C1200       C  0.31573896  0.55120331  0.62397550    -0.22800
H1201       H  0.38504020  0.57438043  0.60085208     0.19000
H1202       H  0.23981507  0.42312464  0.59656654     0.17800
H1203       H  0.28821335  0.41443758  0.56822459     0.14100
H1204       H  0.34128067  0.58460552  0.62815634     0.13900
H1205       H  0.40803144  0.54520418  0.57442774     0.32100
H1206       H  0.21768475  0.45584213  0.62424740     0.34900
C1207       C  0.61994820  0.68584019  0.53451527     0.20500
C1208       C  0.57933243  0.66309304  0.54317342    -0.39400
C1209       C  0.54816178  0.61933682  0.53777060     0.19400
C1210       C  0.55626374  0.59915911  0.52469969     0.22100
C1211       C  0.59712648  0.62227000  0.51586635    -0.39900
C1212       C  0.62869382  0.66647592  0.52133189     0.20900
N1213       N  0.65512313  0.72748096  0.53759637    -0.33200
C1214       C  0.68695892  0.73527250  0.52632972    -0.10800
C1215       C  0.67173281  0.69799339  0.51589811    -0.29600
N1216       N  0.52085616  0.55655040  0.52238784    -0.46200
C1217       C  0.49041589  0.55017124  0.53415100    -0.05400
C1218       C  0.50647484  0.58868408  0.54385772    -0.22800
H1219       H  0.57264761  0.67823118  0.55351620     0.19000
H1220       H  0.60403249  0.60690511  0.50564930     0.17800
H1221       H  0.68985365  0.69429678  0.50584037     0.14100
H1222       H  0.48992951  0.59351621  0.55418433     0.13900
H1223       H  0.65737313  0.74921212  0.54690071     0.32100
H1224       H  0.51772022  0.53339207  0.51350306     0.34900
C1225       C  0.20132586  0.22810837  0.52700601     0.20500
C1226       C  0.15923503  0.20679246  0.53506037    -0.39400
C1227       C  0.12734931  0.16296224  0.52952892     0.19400
C1228       C  0.13683262  0.14222357  0.51696419     0.22100
C1229       C  0.17874630  0.16321656  0.50904389    -0.39900
C1230       C  0.21035637  0.20670500  0.51455562     0.20900
N1231       N  0.23721360  0.27011624  0.52958290    -0.33200
C1232       C  0.26896676  0.27498342  0.51863474    -0.10800
C1233       C  0.25332130  0.23606884  0.50914977    -0.29600
N1234       N  0.10103586  0.10113426  0.51374103    -0.46200
C1235       C  0.06824986  0.09527196  0.52432832    -0.05400
C1236       C  0.08335787  0.13307799  0.53442788    -0.22800
H1237       H  0.15171749  0.22320348  0.54477956     0.19000
H1238       H  0.18607873  0.14702505  0.49919117     0.17800
H1239       H  0.27089402  0.23024399  0.49938537     0.14100
H1240       H  0.06460642  0.13811726  0.54395153     0.13900
H1241       H  0.23977944  0.29394028  0.53808769     0.32100
H1242       H  0.09907634  0.07847747  0.50484132     0.34900
C1243       C  0.47461487  0.33629607  0.44246623     0.20500
C1244       C  0.47902488  0.37035447  0.45323095    -0.39400
C1245       C  0.45007887  0.35481136  0.46670239     0.19400
C1246       C  0.41982679  0.30893630  0.46910562     0.22100
C1247       C  0.41577698  0.27520294  0.45852527    -0.39900
C1248       C  0.44392946  0.29065800  0.44509251     0.20900
N1249       N  0.49693407  0.34167896  0.42855408    -0.33200
C1250       C  0.47967081  0.29912880  0.42237429    -0.10800
C1251       C  0.44657712  0.26653110  0.43234835    -0.29600
N1252       N  0.39402873  0.30250263  0.48199713    -0.46200
C1253       C  0.40712571  0.34433458  0.48799016    -0.05400
C1254       C  0.44259171  0.37821428  0.47890808    -0.22800
H1255       H  0.50227407  0.40615613  0.45106185     0.19000
H1256       H  0.39134523  0.23952099  0.46037977     0.17800
H1257       H  0.42711453  0.23005786  0.43052331     0.14100
H1258       H  0.45871006  0.41471173  0.48045238     0.13900
H1259       H  0.52190370  0.37226877  0.42350857     0.32100
H1260       H  0.36769104  0.27124319  0.48611514     0.34900
C1261       C  0.61867509  0.41554119  0.77682313     0.20500
C1262       C  0.61142995  0.44058193  0.76484626    -0.39400
C1263       C  0.64562728  0.46052133  0.75306315     0.19400
C1264       C  0.68355065  0.45532995  0.75332847     0.22100
C1265       C  0.69067974  0.43040971  0.76515413    -0.39900
C1266       C  0.65696902  0.41097349  0.77686180     0.20900
N1267       N  0.59181584  0.39339392  0.78944081    -0.33200
C1268       C  0.61360730  0.37496891  0.79742999    -0.10800
C1269       C  0.65429998  0.38531302  0.78993310    -0.29600
N1270       N  0.71128835  0.47738385  0.74110224    -0.46200
C1271       C  0.69146357  0.49718287  0.73281492    -0.05400
C1272       C  0.65020374  0.48751439  0.73987006    -0.22800
H1273       H  0.58166531  0.44444210  0.76476683     0.19000
H1274       H  0.72055033  0.42669489  0.76527773     0.17800
H1275       H  0.67865259  0.37525301  0.79354257     0.14100
H1276       H  0.62704444  0.49878584  0.73596908     0.13900
H1277       H  0.56078439  0.39095664  0.79241632     0.32100
H1278       H  0.74221022  0.47893492  0.73862111     0.34900
C1279       C  0.87818157  0.54833229  0.70146821     0.20500
C1280       C  0.90815931  0.53573587  0.70794737    -0.39400
C1281       C  0.94893087  0.55133932  0.69967293     0.19400
C1282       C  0.95945340  0.57756151  0.68589303     0.22100
C1283       C  0.92895685  0.59003704  0.67926313    -0.39900
C1284       C  0.88769478  0.57438627  0.68767452     0.20900
N1285       N  0.83791720  0.53832973  0.70755834    -0.33200
C1286       C  0.82091217  0.55801626  0.69775576    -0.10800
C1287       C  0.85090460  0.58090913  0.68507850    -0.29600
N1288       N  0.00142396  0.58882560  0.68068344    -0.46200
C1289       C  0.01714406  0.56950373  0.69134250    -0.05400
C1290       C  0.98519518  0.54582427  0.70326081    -0.22800
H1291       H  0.90049801  0.51569533  0.71883065     0.19000
H1292       H  0.93699135  0.61080701  0.66855891     0.17800
H1293       H  0.84666817  0.60000145  0.67547836     0.14100
H1294       H  0.98837272  0.52755688  0.71338975     0.13900
H1295       H  0.82311900  0.51941505  0.71797624     0.32100
H1296       H  0.01840723  0.60869577  0.67067325     0.34900
C1297       C  0.52781930  0.58503029  0.69247216     0.20500
C1298       C  0.48892693  0.57092959  0.70211706    -0.39400
C1299       C  0.45494401  0.57851153  0.69560221     0.19400
C1300       C  0.45966295  0.59865757  0.68070275     0.22100
C1301       C  0.49821482  0.61269539  0.67115822    -0.39900
C1302       C  0.53182201  0.60516603  0.67762683     0.20900
N1303       N  0.56522430  0.58198948  0.69570531    -0.33200
C1304       C  0.59280142  0.60057374  0.68275273    -0.10800
C1305       C  0.57295504  0.61530877  0.67134049    -0.29600
N1306       N  0.42347535  0.60293299  0.67722031    -0.46200
C1307       C  0.39514698  0.58551689  0.68996793    -0.05400
C1308       C  0.41340075  0.56964673  0.70169099    -0.22800
H1309       H  0.48542576  0.55540255  0.71378942     0.19000
H1310       H  0.50190249  0.62859941  0.65954225     0.17800
H1311       H  0.58690777  0.63149811  0.65988772     0.14100
H1312       H  0.39863030  0.55440816  0.71317433     0.13900
H1313       H  0.57169736  0.56860334  0.70602478     0.32100
H1314       H  0.41856003  0.61721063  0.66681545     0.34900
C1315       C  0.74066770  0.71583790  0.63167629     0.20500
C1316       C  0.73524243  0.74293965  0.62032199    -0.39400
C1317       C  0.76924701  0.76242424  0.60874499     0.19400
C1318       C  0.80631679  0.75586036  0.60843055     0.22100
C1319       C  0.81206833  0.72881437  0.62003204    -0.39900
C1320       C  0.77749322  0.70884556  0.63172343     0.20900
N1321       N  0.71169946  0.69263171  0.64346131    -0.33200
C1322       C  0.72953810  0.67026011  0.65129278    -0.10800
C1323       C  0.77093212  0.67954169  0.64440897    -0.29600
N1324       N  0.83310026  0.77765180  0.59573205    -0.46200
C1325       C  0.81235817  0.79774423  0.58806491    -0.05400
C1326       C  0.77263477  0.78902487  0.59589145    -0.22800
H1327       H  0.70607362  0.74781661  0.62034008     0.19000
H1328       H  0.84073525  0.72316802  0.61981097     0.17800
H1329       H  0.79259318  0.66611970  0.64796398     0.14100
H1330       H  0.74902997  0.80026222  0.59251631     0.13900
H1331       H  0.68110261  0.69181766  0.64589723     0.32100
H1332       H  0.86314214  0.77841773  0.59240992     0.34900
C1333       C  0.22976253  0.93211053  0.85799527     0.20500
C1334       C  0.27066445  0.95510281  0.84914981    -0.39400
C1335       C  0.30107195  0.00035917  0.85397816     0.19400
C1336       C  0.29107206  0.02068503  0.86654642     0.22100
C1337       C  0.25055031  0.99807835  0.87519261    -0.39900
C1338       C  0.22069873  0.95335159  0.87047934     0.20900
N1339       N  0.19532076  0.88866930  0.85632894    -0.33200
C1340       C  0.16474451  0.88294051  0.86796709    -0.10800
C1341       C  0.17965960  0.92262007  0.87689970    -0.29600
N1342       N  0.32534335  0.06292658  0.86929369    -0.46200
C1343       C  0.35801166  0.07020255  0.85848483    -0.05400
C1344       C  0.34416249  0.03202604  0.84859297    -0.22800
H1345       H  0.27852913  0.93887328  0.83946070     0.19000
H1346       H  0.24311802  0.01398050  0.88511390     0.17800
H1347       H  0.16279999  0.92819820  0.88696211     0.14100
H1348       H  0.36336753  0.02769857  0.83905932     0.13900
H1349       H  0.19302147  0.86453398  0.84801514     0.32100
H1350       H  0.32661852  0.08525813  0.87820123     0.34900
C1351       C  0.02625247  0.84327056  0.92395152     0.20500
C1352       C  0.03248782  0.87500655  0.93581159    -0.39400
C1353       C  0.99581310  0.86238747  0.94616629     0.19400
C1354       C  0.95574427  0.82108624  0.94497941     0.22100
C1355       C  0.94955352  0.78886028  0.93304803    -0.39900
C1356       C  0.98655986  0.80169905  0.92250174     0.20900
N1357       N  0.05588769  0.84857656  0.91243742    -0.33200
C1358       C  0.03550720  0.81036697  0.90334633    -0.10800
C1359       C  0.99205049  0.77988800  0.90926555    -0.29600
N1360       N  0.92605803  0.81802682  0.95637832    -0.46200
C1361       C  0.94776207  0.85784330  0.96470844    -0.05400
C1362       C  0.99125229  0.88613855  0.95864001    -0.22800
H1363       H  0.06355881  0.90757326  0.93676024     0.19000
H1364       H  0.91822347  0.75661048  0.93194159     0.17800
H1365       H  0.96760575  0.74700586  0.90437395     0.14100
H1366       H  0.01631205  0.91974012  0.96281615     0.13900
H1367       H  0.08806169  0.87715399  0.91074869     0.32100
H1368       H  0.89324197  0.79077434  0.95833672     0.34900
C1369       C  0.79467849  0.49729255  0.86399026     0.20500
C1370       C  0.82690203  0.53884656  0.87107076    -0.39400
C1371       C  0.86942901  0.56209147  0.86329588     0.19400
C1372       C  0.87863104  0.54482929  0.84962491     0.22100
C1373       C  0.84674426  0.50364624  0.84261670    -0.39900
C1374       C  0.80462537  0.48083768  0.85027468     0.20900
N1375       N  0.75202255  0.46804907  0.86901917    -0.33200
C1376       C  0.73534814  0.43302747  0.85835484    -0.10800
C1377       C  0.76711599  0.44012808  0.84648655    -0.29600
N1378       N  0.92040824  0.57334981  0.84412708    -0.46200
C1379       C  0.93846023  0.60962393  0.85418760    -0.05400
C1380       C  0.90782069  0.60383753  0.86644567    -0.22800
H1381       H  0.81938585  0.55214291  0.88173788     0.19000
H1382       H  0.85410734  0.49047459  0.83187286     0.17800
H1383       H  0.76354034  0.41794326  0.83654758     0.14100
H1384       H  0.91246231  0.62739117  0.87601680     0.13900
H1385       H  0.73562218  0.47136966  0.87911686     0.32100
H1386       H  0.93530057  0.56872594  0.83383690     0.34900
C1387       C  0.13918364  0.67654009  0.77375026     0.20500
C1388       C  0.14811474  0.70692239  0.78664619    -0.39400
C1389       C  0.11341527  0.69236383  0.79829556     0.19400
C1390       C  0.07351301  0.65089654  0.79697905     0.22100
C1391       C  0.06449794  0.62121137  0.78414635    -0.39900
C1392       C  0.09866052  0.63561180  0.77266330     0.20900
N1393       N  0.16672956  0.68064889  0.76141855    -0.33200
C1394       C  0.14304536  0.64183150  0.75267224    -0.10800
C1395       C  0.10047183  0.61334300  0.75927446    -0.29600
N1396       N  0.04613277  0.64383955  0.80943996    -0.46200
C1397       C  0.06799587  0.68095723  0.81896039    -0.05400
C1398       C  0.11032649  0.71237467  0.81245186    -0.22800
H1399       H  0.17974298  0.73893866  0.78764938     0.19000
H1400       H  0.03323864  0.58878178  0.78329210     0.17800
H1401       H  0.07467869  0.58007574  0.75507375     0.14100
H1402       H  0.13525539  0.74499846  0.81738673     0.13900
H1403       H  0.19964151  0.70751931  0.75927274     0.32100
H1404       H  0.01411279  0.61517378  0.81128284     0.34900
C1405       C  0.33364319  0.10719551  0.25416579     0.20500
C1406       C  0.36236015  0.10245784  0.26504764    -0.39400
C1407       C  0.38132320  0.13573391  0.27697802     0.19400
C1408       C  0.37252564  0.17127886  0.27808534     0.22100
C1409       C  0.34346464  0.17601582  0.26709741    -0.39900
C1410       C  0.32434399  0.14245357  0.25501466     0.20900
N1411       N  0.31138988  0.07937205  0.24193277    -0.33200
C1412       C  0.28742771  0.09652143  0.23472874    -0.10800
C1413       C  0.29461841  0.13614699  0.24249464    -0.29600
N1414       N  0.39508423  0.19824149  0.29069058    -0.46200
C1415       C  0.41809802  0.17933377  0.29754694    -0.05400
C1416       C  0.41023108  0.14036607  0.28928374    -0.22800
H1417       H  0.36931424  0.07467349  0.26429784     0.19000
H1418       H  0.33625246  0.20360116  0.26790953     0.17800
H1419       H  0.27972596  0.15693958  0.23955500     0.14100
H1420       H  0.42387030  0.11829025  0.29193630     0.13900
H1421       H  0.31234709  0.05007522  0.23875151     0.32100
H1422       H  0.39470299  0.22743177  0.29442103     0.34900
C1423       C  0.23049617  0.90646102  0.20569431     0.20500
C1424       C  0.24556741  0.87826506  0.21200091    -0.39400
C1425       C  0.23138474  0.83768768  0.20376868     0.19400
C1426       C  0.20388766  0.82562926  0.19026644     0.22100
C1427       C  0.18852300  0.85411363  0.18389727    -0.39900
C1428       C  0.20314233  0.89539832  0.19217487     0.20900
N1429       N  0.24034278  0.94697070  0.21144881    -0.33200
C1430       C  0.21955560  0.96281200  0.20166107    -0.10800
C1431       C  0.19568479  0.93154889  0.18938039    -0.29600
N1432       N  0.19551038  0.78485240  0.18476240    -0.46200
C1433       C  0.21813214  0.77152356  0.19487710    -0.05400
C1434       C  0.24076633  0.80361906  0.20686032    -0.22800
H1435       H  0.26713793  0.88750353  0.22254633     0.19000
H1436       H  0.16716784  0.84497725  0.17330254     0.17800
H1437       H  0.17607855  0.93490582  0.17975803     0.14100
H1438       H  0.26133957  0.80221481  0.21655464     0.13900
H1439       H  0.26054034  0.96302029  0.22151568     0.32100
H1440       H  0.17575285  0.76726463  0.17479247     0.34900
C1441       C  0.03449599  0.98483214  0.10903724     0.20500
C1442       C  0.05931549  0.97802787  0.12125255    -0.39400
C1443       C  0.07778773  0.01200409  0.13321120     0.19400
C1444       C  0.07145502  0.04924410  0.13286497     0.22100
C1445       C  0.04656801  0.05572987  0.12087930    -0.39900
C1446       C  0.02862769  0.02234658  0.10902703     0.20900
N1447       N  0.01413431  0.95856507  0.09607136    -0.33200
C1448       C  0.99563981  0.98009494  0.08792183    -0.10800
C1449       C  0.00399640  0.01981468  0.09568453    -0.29600
N1450       N  0.09304300  0.07748871  0.14503761    -0.46200
C1451       C  0.11374575  0.05875714  0.15339004    -0.05400
C1452       C  0.10495874  0.01753942  0.14647087    -0.22800
H1453       H  0.06440385  0.94900089  0.12130759     0.19000
H1454       H  0.04214078  0.08517268  0.12066207     0.17800
H1455       H  0.99351179  0.04379940  0.09202183     0.14100
H1456       H  0.11739400  0.99533065  0.15038339     0.13900
H1457       H  0.01303176  0.92822301  0.09294555     0.32100
H1458       H  0.09403187  0.10822881  0.14736480     0.34900
C1459       C  0.16834784  0.24912001  0.18312446     0.20500
C1460       C  0.15529313  0.27881594  0.17663548    -0.39400
C1461       C  0.17375649  0.32118998  0.18409371     0.19400
C1462       C  0.20282386  0.33322615  0.19716002     0.22100
C1463       C  0.21563667  0.30307762  0.20381104    -0.39900
C1464       C  0.19730293  0.26037648  0.19619819     0.20900
N1465       N  0.15653413  0.20772348  0.17761530    -0.33200
C1466       C  0.17799452  0.19183082  0.18707454    -0.10800
C1467       C  0.20378403  0.22364642  0.19895053    -0.29600
N1468       N  0.21631631  0.37620208  0.20173812    -0.46200
C1469       C  0.19567920  0.39122725  0.19141306    -0.05400
C1470       C  0.16883853  0.35777764  0.18028826    -0.22800
H1471       H  0.13301458  0.26983733  0.16629377     0.19000
H1472       H  0.23871907  0.31245855  0.21392301     0.17800
H1473       H  0.22495033  0.22073106  0.20806631     0.14100
H1474       H  0.14874150  0.36007258  0.17060243     0.13900
H1475       H  0.13544564  0.19152235  0.16775075     0.32100
H1476       H  0.23841985  0.39426909  0.21116299     0.34900
C1477       C  0.29989355  0.99924234  0.36488643     0.20500
C1478       C  0.25591734  0.97045805  0.37115447    -0.39400
C1479       C  0.23263201  0.92596483  0.36479216     0.19400
C1480       C  0.25240680  0.91189297  0.35329292     0.22100
C1481       C  0.29605275  0.94023624  0.34720719    -0.39900
C1482       C  0.31876420  0.98436671  0.35332666     0.20900
N1483       N  0.32889895  0.04321933  0.36849764    -0.33200
C1484       C  0.36603904  0.05600324  0.35903724    -0.10800
C1485       C  0.36079061  0.02016484  0.34941957    -0.29600
N1486       N  0.22349134  0.86955434  0.34845820    -0.46200
C1487       C  0.18433441  0.85576590  0.35668896    -0.05400
C1488       C  0.18861070  0.88995052  0.36720555    -0.22800
H1489       H  0.24067519  0.98211661  0.38000298     0.19000
H1490       H  0.31079809  0.92899618  0.33801497     0.17800
H1491       H  0.38460768  0.02025637  0.34074546     0.14100
H1492       H  0.16271439  0.88930628  0.37496560     0.13900
H1493       H  0.32369020  0.06330140  0.37678145     0.32100
H1494       H  0.22983233  0.85160300  0.33959557     0.34900
C1495       C  0.16761708  0.69095460  0.27621780     0.20500
C1496       C  0.18536421  0.72266305  0.28873859    -0.39400
C1497       C  0.15415793  0.71894769  0.30046431     0.19400
C1498       C  0.10841035  0.68642969  0.29991094     0.22100
C1499       C  0.09050081  0.65440606  0.28728138    -0.39900
C1500       C  0.12203035  0.65792527  0.27548097     0.20900
N1501       N  0.19074895  0.68744768  0.26373598    -0.33200
C1502       C  0.16000829  0.65168774  0.25487954    -0.10800
C1503       C  0.11663524  0.63235067  0.26181302    -0.29600
N1504       N  0.08604656  0.69139303  0.31252631    -0.46200
C1505       C  0.11823237  0.72743592  0.32101798    -0.05400
C1506       C  0.16088891  0.74505315  0.31382396    -0.22800
H1507       H  0.22101468  0.74847781  0.28931624     0.19000
H1508       H  0.05481498  0.62876473  0.28666788     0.17800
H1509       H  0.08547820  0.60344310  0.25747189     0.14100
H1510       H  0.19274106  0.77397830  0.31769987     0.13900
H1511       H  0.22554402  0.70796642  0.26147538     0.32100
H1512       H  0.05128120  0.67214651  0.31502746     0.34900
C1513       C  0.98084578  0.81102220  0.41885355     0.20500
C1514       C  0.99895556  0.84474776  0.43089270    -0.39400
C1515       C  0.96775315  0.84219940  0.44260363     0.19400
C1516       C  0.92231424  0.80856682  0.44230592     0.22100
C1517       C  0.90425481  0.77554924  0.43025848    -0.39900
C1518       C  0.93514680  0.77821168  0.41863841     0.20900
N1519       N  0.00305538  0.80434837  0.40661859    -0.33200
C1520       C  0.97079575  0.76699837  0.39872051    -0.10800
C1521       C  0.92824034  0.75023265  0.40586450    -0.29600
N1522       N  0.89974860  0.81242801  0.45484915    -0.46200
C1523       C  0.93074932  0.84900377  0.46326732    -0.05400
C1524       C  0.97363914  0.86870246  0.45600147    -0.22800
H1525       H  0.03461435  0.87056966  0.43124794     0.19000
H1526       H  0.86874768  0.74923301  0.43006455     0.17800
H1527       H  0.89640734  0.72063523  0.40237983     0.14100
H1528       H  0.00484756  0.89810044  0.46004873     0.13900
H1529       H  0.03775368  0.82337888  0.40398290     0.32100
H1530       H  0.86523979  0.79145503  0.45748334     0.34900
C1531       C  0.78662454  0.49752422  0.35354035     0.20500
C1532       C  0.83213998  0.52460097  0.34851783    -0.39400
C1533       C  0.85498803  0.56950250  0.35440534     0.19400
C1534       C  0.83353905  0.58571117  0.36433214     0.22100
C1535       C  0.78813124  0.55908634  0.36908775    -0.39900
C1536       C  0.76572977  0.51437100  0.36344711     0.20900
N1537       N  0.75808322  0.45323345  0.35036758    -0.33200
C1538       C  0.71916174  0.44206619  0.35847627    -0.10800
C1539       C  0.72266218  0.47934718  0.36673841    -0.29600
N1540       N  0.86276698  0.62783563  0.36935200    -0.46200
C1541       C  0.90355333  0.63905680  0.36277012    -0.05400
C1542       C  0.90015066  0.60370677  0.35314637    -0.22800
H1543       H  0.84890951  0.51124476  0.34107873     0.19000
H1544       H  0.77198172  0.57178717  0.37714153     0.17800
H1545       H  0.69728345  0.48051622  0.37428269     0.14100
H1546       H  0.92731118  0.60224422  0.34687552     0.13900
H1547       H  0.76490184  0.43175840  0.34338490     0.32100
H1548       H  0.85555995  0.64719245  0.37732485     0.34900
C1549       C  0.12042377  0.16538459  0.01919470     0.20500
C1550       C  0.16514856  0.19412870  0.01364386    -0.39400
C1551       C  0.18701067  0.23896225  0.01964033     0.19400
C1552       C  0.16548972  0.25355124  0.03022447     0.22100
C1553       C  0.12090546  0.22525669  0.03554347    -0.39900
C1554       C  0.09947451  0.18069871  0.02973552     0.20900
N1555       N  0.09262829  0.12096345  0.01583813    -0.33200
C1556       C  0.05407487  0.10826154  0.02443625    -0.10800
C1557       C  0.05722759  0.14465367  0.03322748    -0.29600
N1558       N  0.19393483  0.29598212  0.03520179    -0.46200
C1559       C  0.23427946  0.30900827  0.02791292    -0.05400
C1560       C  0.23133474  0.27458844  0.01787318    -0.22800
H1561       H  0.18206809  0.18213887  0.00565812     0.19000
H1562       H  0.10463808  0.23671216  0.04405128     0.17800
H1563       H  0.03198540  0.14467835  0.04117384     0.14100
H1564       H  0.25844931  0.27461468  0.01102892     0.13900
H1565       H  0.09958838  0.10051793  0.00833542     0.32100
H1566       H  0.18665684  0.31438044  0.04359049     0.34900
C1567       C  0.31425177  0.48014151  0.08456942     0.20500
C1568       C  0.33167211  0.51637675  0.09568065    -0.39400
C1569       C  0.30166712  0.51264953  0.10808063     0.19400
C1570       C  0.25792227  0.47576899  0.10919590     0.22100
C1571       C  0.24067081  0.43994552  0.09819274    -0.39900
C1572       C  0.27043712  0.44360767  0.08596817     0.20900
N1573       N  0.33517216  0.47493459  0.07158685    -0.33200
C1574       C  0.30396753  0.43475207  0.06486046    -0.10800
C1575       C  0.26350364  0.41450628  0.07357486    -0.29600
N1576       N  0.23610668  0.47952432  0.12198110    -0.46200
C1577       C  0.26595609  0.51904751  0.12924753    -0.05400
C1578       C  0.30731829  0.54092364  0.12092320    -0.22800
H1579       H  0.36587397  0.54513926  0.09477542     0.19000
H1580       H  0.20648121  0.41112970  0.09911491     0.17800
H1581       H  0.23271128  0.38261613  0.07109609     0.14100
H1582       H  0.33741772  0.57285698  0.12393423     0.13900
H1583       H  0.36816639  0.49719197  0.06754805     0.32100
H1584       H  0.20290349  0.45631724  0.12559158     0.34900
C1585       C  0.48644584  0.36620852  0.93682299     0.20500
C1586       C  0.49931788  0.40499142  0.94609715    -0.39400
C1587       C  0.46995654  0.39983432  0.95867143     0.19400
C1588       C  0.43046496  0.35928950  0.96193554     0.22100
C1589       C  0.41706989  0.32031715  0.95238732    -0.39900
C1590       C  0.44676754  0.32544158  0.93969345     0.20900
N1591       N  0.50970182  0.36243111  0.92452121    -0.33200
C1592       C  0.48484481  0.31895063  0.91934966    -0.10800
C1593       C  0.44514451  0.29466901  0.92845213    -0.29600
N1594       N  0.41017776  0.36329715  0.97532317    -0.46200
C1595       C  0.43754179  0.40671467  0.98045175    -0.05400
C1596       C  0.47468914  0.43029496  0.97025560    -0.22800
H1597       H  0.53057407  0.43667988  0.94391355     0.19000
H1598       H  0.38652728  0.28826098  0.95486003     0.17800
H1599       H  0.41900773  0.25933574  0.92711964     0.14100
H1600       H  0.50257945  0.46491785  0.97148900     0.13900
H1601       H  0.54069684  0.38801231  0.91992794     0.32100
H1602       H  0.38066067  0.33797503  0.98083702     0.34900
C1603       C  0.64500470  0.66121440  0.01680439     0.20500
C1604       C  0.62246123  0.62067651  0.00819332    -0.39400
C1605       C  0.57867399  0.58995039  0.01346367     0.19400
C1606       C  0.55801975  0.59841673  0.02629765     0.22100
C1607       C  0.58090380  0.63940591  0.03507138    -0.39900
C1608       C  0.62541647  0.67049071  0.02979954     0.20900
N1609       N  0.68691469  0.69572186  0.01388506    -0.33200
C1610       C  0.69478469  0.72764425  0.02508868    -0.10800
C1611       C  0.65724192  0.71328684  0.03531360    -0.29600
N1612       N  0.51520736  0.56327542  0.02838222    -0.46200
C1613       C  0.50944718  0.53286140  0.01669183    -0.05400
C1614       C  0.54840142  0.54847377  0.00732104    -0.22800
H1615       H  0.63787032  0.61364736  0.99801544     0.19000
H1616       H  0.56526301  0.64665671  0.04511482     0.17800
H1617       H  0.65364362  0.73173578  0.04528931     0.14100
H1618       H  0.55369009  0.53192229  0.99708677     0.13900
H1619       H  0.70882938  0.69740628  0.00474956     0.32100
H1620       H  0.49146924  0.56045960  0.03695899     0.34900
C1621       C  0.01304267  0.44965369  0.58406871     0.20500
C1622       C  0.04023521  0.44407576  0.59535485    -0.39400
C1623       C  0.05550964  0.47495400  0.60804287     0.19400
C1624       C  0.04535049  0.50955360  0.60934135     0.22100
C1625       C  0.01818779  0.51544644  0.59785608    -0.39900
C1626       C  0.00212922  0.48378306  0.58514157     0.20900
N1627       N  0.99236547  0.42255048  0.57155002    -0.33200
C1628       C  0.96746178  0.43874899  0.56447991    -0.10800
C1629       C  0.97284574  0.47738533  0.57248981    -0.29600
N1630       N  0.06448108  0.53427994  0.62269684    -0.46200
C1631       C  0.08643828  0.51468526  0.62982129    -0.05400
C1632       C  0.08141083  0.47759636  0.62104243    -0.22800
H1633       H  0.04801036  0.41686229  0.59451096     0.19000
H1634       H  0.00951464  0.54197828  0.59891315     0.17800
H1635       H  0.95633293  0.49685711  0.56982794     0.14100
H1636       H  0.09528804  0.45574056  0.62373129     0.13900
H1637       H  0.99418299  0.39375477  0.56830959     0.32100
H1638       H  0.06270505  0.56251353  0.62670580     0.34900
C1639       C  0.91163898  0.17757046  0.53045625     0.20500
C1640       C  0.93475331  0.22092965  0.53732988    -0.39400
C1641       C  0.91887474  0.25029809  0.53299987     0.19400
C1642       C  0.88273569  0.23797008  0.52257267     0.22100
C1643       C  0.85990299  0.19446266  0.51543599    -0.39900
C1644       C  0.87583136  0.16473910  0.51981598     0.20900
N1645       N  0.91926001  0.14307879  0.53328076    -0.33200
C1646       C  0.88827150  0.10769621  0.52436368    -0.10800
C1647       C  0.86063422  0.11988305  0.51569622    -0.29600
N1648       N  0.87313538  0.27198044  0.52119270    -0.46200
C1649       C  0.90350912  0.30576824  0.53091243    -0.05400
C1650       C  0.93253179  0.29332989  0.53832187    -0.22800
H1651       H  0.96244614  0.23075320  0.54576989     0.19000
H1652       H  0.83130222  0.18416634  0.50739278     0.17800
H1653       H  0.83262003  0.09853193  0.50777876     0.14100
H1654       H  0.95939383  0.31279714  0.54690679     0.13900
H1655       H  0.94391004  0.14353164  0.54093553     0.32100
H1656       H  0.84709165  0.27178930  0.51443835     0.34900
C1657       C  0.82917839  0.57983265  0.52110696     0.20500
C1658       C  0.81223549  0.60774925  0.51608702    -0.39400
C1659       C  0.83399807  0.65161235  0.52247181     0.19400
C1660       C  0.86967506  0.66673780  0.53328859     0.22100
C1661       C  0.88627023  0.63823423  0.53859977    -0.39900
C1662       C  0.86467523  0.59401561  0.53196560     0.20900
N1663       N  0.81594819  0.53797546  0.51571579    -0.33200
C1664       C  0.84299745  0.52463345  0.52299988    -0.10800
C1665       C  0.87384089  0.55856915  0.53341640    -0.29600
N1666       N  0.88564842  0.71096008  0.53686724    -0.46200
C1667       C  0.86004119  0.72363126  0.52806611    -0.05400
C1668       C  0.82742417  0.68738496  0.51905486    -0.22800
H1669       H  0.78506815  0.59659302  0.50733820     0.19000
H1670       H  0.91473963  0.65005451  0.54680870     0.17800
H1671       H  0.90034504  0.55812287  0.54051621     0.14100
H1672       H  0.80278546  0.68747221  0.51080044     0.13900
H1673       H  0.79054389  0.51998520  0.50717564     0.32100
H1674       H  0.91282407  0.73143836  0.54447736     0.34900
C1675       C  0.74283115  0.34816084  0.46825672     0.20500
C1676       C  0.72668488  0.31340284  0.45657955    -0.39400
C1677       C  0.69911892  0.31601950  0.44441517     0.19400
C1678       C  0.68847973  0.35042743  0.44408414     0.22100
C1679       C  0.70377981  0.38435231  0.45581702    -0.39900
C1680       C  0.73133879  0.38192912  0.46777698     0.20900
N1681       N  0.77137129  0.35523645  0.48065417    -0.33200
C1682       C  0.77778212  0.39386178  0.48792292    -0.10800
C1683       C  0.75318680  0.41111657  0.48022710    -0.29600
N1684       N  0.66377134  0.34705730  0.43106049    -0.46200
C1685       C  0.65841074  0.31028825  0.42284985    -0.05400
C1686       C  0.67965891  0.28963198  0.43085391    -0.22800
H1687       H  0.73580669  0.28708529  0.45671289     0.19000
H1688       H  0.69581016  0.41148199  0.45541295     0.17800
H1689       H  0.75224475  0.44172860  0.48313925     0.14100
H1690       H  0.68149158  0.26007441  0.42708004     0.13900
H1691       H  0.78606885  0.33565101  0.48378166     0.32100
H1692       H  0.65175017  0.36892380  0.42785935     0.34900
C1693       C  0.57701002  0.58252928  0.87003261     0.20500
C1694       C  0.58785448  0.55186064  0.87714099    -0.39400
C1695       C  0.57100007  0.51012173  0.86930900     0.19400
C1696       C  0.54518156  0.49942413  0.85541015     0.22100
C1697       C  0.53395375  0.53026574  0.84830979    -0.39900
C1698       C  0.55094532  0.57243366  0.85621025     0.20900
N1699       N  0.58982456  0.62450635  0.87519687    -0.33200
C1700       C  0.57193120  0.64190729  0.86473012    -0.10800
C1701       C  0.54716923  0.61038383  0.85265437    -0.29600
N1702       N  0.53423844  0.45752333  0.85022612    -0.46200
C1703       C  0.55343068  0.44188466  0.86095135    -0.05400
C1704       C  0.57643031  0.47377168  0.87301903    -0.22800
H1705       H  0.60833689  0.56011495  0.88794233     0.19000
H1706       H  0.51387817  0.52219660  0.83742088     0.17800
H1707       H  0.52927852  0.61472293  0.84265271     0.14100
H1708       H  0.59511600  0.47094150  0.88308509     0.13900
H1709       H  0.60970199  0.64035931  0.88534708     0.32100
H1710       H  0.51529823  0.44082541  0.84000324     0.34900
C1711       C  0.67707843  0.82205745  0.91642637     0.20500
C1712       C  0.68892357  0.85272080  0.92941333    -0.39400
C1713       C  0.71598213  0.84876520  0.94150040     0.19400
C1714       C  0.72984997  0.81677642  0.94060432     0.22100
C1715       C  0.71883063  0.78707957  0.92763408    -0.39900
C1716       C  0.69219350  0.79105618  0.91569463     0.20900
N1717       N  0.64883583  0.81569658  0.90396419    -0.33200
C1718       C  0.64623924  0.78016896  0.89551203    -0.10800
C1719       C  0.67334617  0.76467832  0.90240613    -0.29600
N1720       N  0.75435261  0.81876986  0.95351173    -0.46200
C1721       C  0.75681608  0.85256997  0.96280969    -0.05400
C1722       C  0.73328458  0.87226743  0.95575907    -0.22800
H1723       H  0.67716029  0.87697302  0.93024147     0.19000
H1724       H  0.72942285  0.76187402  0.92704994     0.17800
H1725       H  0.67680360  0.73598810  0.89868152     0.14100
H1726       H  0.72954066  0.90000685  0.96040065     0.13900
H1727       H  0.63105617  0.83289006  0.90177994     0.32100
H1728       H  0.76908648  0.79866967  0.95573560     0.34900
C1729       C  0.40636209  0.71800805  0.79961606     0.20500
C1730       C  0.37950919  0.72347072  0.78807305    -0.39400
C1731       C  0.36334001  0.69158216  0.77561749     0.19400
C1732       C  0.37245963  0.65623154  0.77474020     0.22100
C1733       C  0.39933814  0.65052594  0.78646612    -0.39900
C1734       C  0.41618364  0.68308968  0.79895625     0.20900
N1735       N  0.42766053  0.74580384  0.81199236    -0.33200
C1736       C  0.45194049  0.72930069  0.81939885    -0.10800
C1737       C  0.44538412  0.68972305  0.81171933    -0.29600
N1738       N  0.35270103  0.63065031  0.76153559    -0.46200
C1739       C  0.33124305  0.65032553  0.75403310    -0.05400
C1740       C  0.33738282  0.68842456  0.76249277    -0.22800
H1741       H  0.37254255  0.75127432  0.78856997     0.19000
H1742       H  0.40721388  0.62337714  0.78575876     0.17800
H1743       H  0.46119577  0.66975708  0.81464499     0.14100
H1744       H  0.32423325  0.71071430  0.75950071     0.13900
H1745       H  0.42674508  0.77528215  0.81490781     0.32100
H1746       H  0.35375754  0.60176351  0.75786755     0.34900
C1747       C  0.50983839  0.92161577  0.84931312     0.20500
C1748       C  0.49278002  0.94953970  0.84440652    -0.39400
C1749       C  0.51345445  0.99274404  0.85134346     0.19400
C1750       C  0.54845663  0.00733501  0.86243073     0.22100
C1751       C  0.56556759  0.97908655  0.86742533    -0.39900
C1752       C  0.54481176  0.93547376  0.86038188     0.20900
N1753       N  0.49624832  0.87952437  0.84406419    -0.33200
C1754       C  0.52251130  0.86582392  0.85172800    -0.10800
C1755       C  0.55335194  0.89977431  0.86210655    -0.29600
N1756       N  0.56259630  0.05055800  0.86692542    -0.46200
C1757       C  0.53638494  0.06313835  0.85849065    -0.05400
C1758       C  0.50538377  0.02789756  0.84871494    -0.22800
H1759       H  0.46568156  0.93856862  0.83563746     0.19000
H1760       H  0.59320370  0.99036391  0.87597553     0.17800
H1761       H  0.57885262  0.89876902  0.86963378     0.14100
H1762       H  0.48049316  0.02813174  0.84062476     0.13900
H1763       H  0.47072306  0.86135271  0.83558230     0.32100
H1764       H  0.58870983  0.07036905  0.87500581     0.34900
C1765       C  0.96346370  0.33313219  0.69856849     0.20500
C1766       C  0.91895199  0.30416103  0.70432061    -0.39400
C1767       C  0.89586139  0.26027954  0.69745534     0.19400
C1768       C  0.91612973  0.24685203  0.68591833     0.22100
C1769       C  0.96039270  0.27529125  0.68039607    -0.39900
C1770       C  0.98300033  0.31879759  0.68706894     0.20900
N1771       N  0.99219556  0.37699287  0.70249307    -0.33200
C1772       C  0.02981013  0.39020394  0.69326440    -0.10800
C1773       C  0.02520207  0.35471701  0.68357279    -0.29600
N1774       N  0.88711197  0.20510894  0.68051154    -0.46200
C1775       C  0.84755386  0.19116168  0.68848560    -0.05400
C1776       C  0.85158534  0.22449992  0.69934973    -0.22800
H1777       H  0.90311579  0.31531771  0.71311166     0.19000
H1778       H  0.97564344  0.26470662  0.67117167     0.17800
H1779       H  0.04935469  0.35529514  0.67494128     0.14100
H1780       H  0.82535538  0.22349088  0.70702012     0.13900
H1781       H  0.98635738  0.39680921  0.71070004     0.32100
H1782       H  0.89366884  0.18761433  0.67153155     0.34900
C1783       C  0.81100594  0.05662245  0.63105745     0.20500
C1784       C  0.84278692  0.06399340  0.61905805    -0.39400
C1785       C  0.82886317  0.02979923  0.60748757     0.19400
C1786       C  0.78643720  0.99087323  0.60775711     0.22100
C1787       C  0.75427278  0.98345991  0.61986371    -0.39900
C1788       C  0.76829204  0.01808019  0.63155635     0.20900
N1789       N  0.81683521  0.08436877  0.64335675    -0.33200
C1790       C  0.77774100  0.06397943  0.65197379    -0.10800
C1791       C  0.74629222  0.02233711  0.64498621    -0.29600
N1792       N  0.78215809  0.96356955  0.59528196    -0.46200
C1793       C  0.82223333  0.98566541  0.58713199    -0.05400
C1794       C  0.85200915  0.02700700  0.59443198    -0.22800
H1795       H  0.87612560  0.09426697  0.61877975     0.19000
H1796       H  0.72101290  0.95311136  0.62017120     0.17800
H1797       H  0.71232348  0.99850672  0.64916904     0.14100
H1798       H  0.88621333  0.05171777  0.59071301     0.13900
H1799       H  0.84606208  0.11557843  0.64573141     0.32100
H1800       H  0.75391158  0.93199278  0.59251119     0.34900
C1801       C  0.49854319  0.91950737  0.69632592     0.20500
C1802       C  0.45233574  0.89296859  0.70014878    -0.39400
C1803       C  0.43072731  0.84811868  0.69455005     0.19400
C1804       C  0.45313420  0.83096306  0.68560013     0.22100
C1805       C  0.49949042  0.85789407  0.68156521    -0.39900
C1806       C  0.52141681  0.90293945  0.68733321     0.20900
N1807       N  0.52711663  0.96184707  0.70143426    -0.33200
C1808       C  0.56878722  0.97274840  0.69579197    -0.10800
C1809       C  0.56668481  0.93705257  0.68673501    -0.29600
N1810       N  0.42510069  0.78651102  0.68236956    -0.46200
C1811       C  0.38491191  0.77549122  0.68950458    -0.05400
C1812       C  0.38716662  0.81311512  0.69714643    -0.22800
H1813       H  0.43490382  0.90583707  0.70748158     0.19000
H1814       H  0.51746598  0.84436414  0.67490645     0.17800
H1815       H  0.59470703  0.93532989  0.68127153     0.14100
H1816       H  0.36072109  0.81440525  0.70399662     0.13900
H1817       H  0.51891701  0.98161316  0.70882058     0.32100
H1818       H  0.43312998  0.76478275  0.67610699     0.34900
C1819       C  0.64783967  0.14651830  0.75193140     0.20500
C1820       C  0.66622457  0.18237141  0.76321801    -0.39400
C1821       C  0.63575598  0.18091568  0.77504919     0.19400
C1822       C  0.59068426  0.14645212  0.77546326     0.22100
C1823       C  0.57234475  0.11125155  0.76417795    -0.39900
C1824       C  0.60258960  0.11261880  0.75252610     0.20900
N1825       N  0.66927229  0.13901899  0.73962806    -0.33200
C1826       C  0.63701957  0.10006904  0.73248881    -0.10800
C1827       C  0.59524558  0.08288884  0.74025951    -0.29600
N1828       N  0.56897195  0.15126159  0.78807657    -0.46200
C1829       C  0.60014555  0.18904720  0.79594293    -0.05400
C1830       C  0.64229928  0.20886239  0.78812608    -0.22800
H1831       H  0.70160872  0.20893593  0.76296074     0.19000
H1832       H  0.53714772  0.08422587  0.76460731     0.17800
H1833       H  0.56352566  0.05238475  0.73734722     0.14100
H1834       H  0.67360452  0.23885356  0.79173621     0.13900
H1835       H  0.70342683  0.15890589  0.73634509     0.32100
H1836       H  0.53497998  0.12962560  0.79125303     0.34900
loop_ 
_geom_bond_atom_site_label_1 
_geom_bond_atom_site_label_2 
_geom_bond_distance 
_geom_bond_site_symmetry_2 
_ccdc_geom_bond_type 
C1            N2   1.361       .  A
C1            N6   1.352       .  A
C1         C1826   1.477       .  S
N2            C3   1.368       .  A
C3            N4   1.365       .  A
C3            C9   1.476       .  S
N4            C5   1.358       .  A
C5            N6   1.350       .  A
C5         C1808   1.472   1_545  S
C7            N8   1.360       .  A
C7           N12   1.349       .  A
C7         C1790   1.477       .  S
N8            C9   1.369       .  A
C9           N10   1.367       .  A
N10          C11   1.359       .  A
C11          N12   1.350       .  A
C11        C1775   1.472       .  S
C13          N14   1.351       .  A
C13          N18   1.360       .  A
C13        C1736   1.477       .  S
N14          C15   1.351       .  A
C15          N16   1.358       .  A
C15        C1754   1.472       .  S
N16          C17   1.365       .  A
C17          N18   1.368       .  A
C17          C23   1.474       .  S
C19          N20   1.349       .  A
C19          N24   1.360       .  A
C19        C1718   1.474       .  S
N20          C21   1.347       .  A
C21          N22   1.358       .  A
C21        C1700   1.472       .  S
N22          C23   1.367       .  A
C23          N24   1.369       .  A
C25          N26   1.359       .  A
C25          N30   1.351       .  A
C25        C1682   1.473       .  S
N26          C27   1.366       .  A
C27          N28   1.368       .  A
C27          C33   1.472       .  S
N28          C29   1.358       .  A
C29          N30   1.349       .  A
C29        C1664   1.475       .  S
C31          N32   1.355       .  A
C31          N36   1.347       .  A
C31        C1628   1.466       .  S
N32          C33   1.365       .  A
C33          N34   1.371       .  A
N34          C35   1.362       .  A
C35          N36   1.348       .  A
C35        C1649   1.477       .  S
C37          N38   1.345       .  A
C37          N42   1.358   1_556  A
C37        C1595   1.472       .  S
N38          C39   1.346   1_556  A
C39          N40   1.359       .  A
C39        C1613   1.471       .  S
N40          C41   1.369       .  A
C41          N42   1.370       .  A
C41          C47   1.473       .  S
C43          N44   1.350       .  A
C43          N48   1.361       .  A
C43        C1574   1.474       .  S
N44          C45   1.347       .  A
C45          N46   1.357       .  A
C45        C1559   1.470       .  S
N46          C47   1.366       .  A
C47          N48   1.369       .  A
C49          N50   1.360   1_655  A
C49          N54   1.348       .  A
C49        C1520   1.475       .  S
N50          C51   1.369       .  A
C51          N52   1.368   1_455  A
C51          C57   1.477       .  S
N52          C53   1.359       .  A
C53          N54   1.347       .  A
C53        C1541   1.471       .  S
C55          N56   1.362       .  A
C55          N60   1.348       .  A
C55        C1505   1.480       .  S
N56          C57   1.371       .  A
C57          N58   1.369       .  A
N58          C59   1.359       .  A
C59          N60   1.348       .  A
C59        C1487   1.474       .  S
C61          N62   1.356       .  A
C61          N66   1.349       .  A
C61        C1451   1.468       .  S
N62          C63   1.365       .  A
C63          N64   1.368       .  A
C63          C69   1.470       .  S
N64          C65   1.360       .  A
C65          N66   1.349       .  A
C65        C1466   1.473       .  S
C67          N68   1.358       .  A
C67          N72   1.346       .  A
C67        C1412   1.471       .  S
N68          C69   1.367       .  A
C69          N70   1.368       .  A
N70          C71   1.358       .  A
C71          N72   1.348       .  A
C71        C1430   1.471   1_545  S
C73          N74   1.350       .  A
C73          N78   1.358       .  A
C73        C1397   1.469       .  S
N74          C75   1.348   1_455  A
C75          N76   1.359   1_655  A
C75        C1379   1.473       .  S
N76          C77   1.367       .  A
C77          N78   1.365       .  A
C77          C81   1.473       .  S
C79          N80   1.358       .  A
C79          N84   1.348       .  A
C79        C1358   1.473       .  S
N80          C81   1.367       .  A
C81          N82   1.369       .  A
N82          C83   1.360       .  A
C83          N84   1.350       .  A
C83        C1340   1.477       .  S
C85          N86   1.356       .  A
C85          N90   1.347       .  A
C85        C1322   1.468       .  S
N86          C87   1.366       .  A
C87          N88   1.369       .  A
C87          C95   1.470       .  S
N88          C89   1.360       .  A
C89          N90   1.348       .  A
C89        C1304   1.473       .  S
C91          N92   1.347       .  A
C91          N96   1.359       .  A
C91        C1271   1.468       .  S
N92          C93   1.347       .  A
C93          N94   1.357       .  A
C93        C1286   1.471       .  S
N94          C95   1.367       .  A
C95          N96   1.367       .  A
C97          N98   1.347       .  A
C97         N102   1.358       .  A
C97        C1253   1.467       .  S
N98          C99   1.347       .  A
C99         N100   1.360       .  A
C99        C1232   1.473       .  S
N100        C101   1.368       .  A
C101        N102   1.367       .  A
C101        C107   1.474       .  S
C103        N104   1.349       .  A
C103        N108   1.359       .  A
C103       C1196   1.475       .  S
N104        C105   1.349       .  A
C105        N106   1.359       .  A
C105       C1217   1.478       .  S
N106        C107   1.369       .  A
C107        N108   1.369       .  A
C109        N110   1.360   1_556  A
C109        N114   1.348       .  A
C109       C1163   1.475       .  S
N110        C111   1.369       .  A
C111        N112   1.368       .  A
C111        C117   1.474       .  S
N112        C113   1.358       .  A
C113        N114   1.346   1_554  A
C113       C1181   1.472       .  S
C115        N116   1.357       .  A
C115        N120   1.346       .  A
C115       C1142   1.470       .  S
N116        C117   1.367       .  A
C117        N118   1.369       .  A
N118        C119   1.361       .  A
C119        N120   1.348       .  A
C119       C1124   1.475       .  S
C121        N122   1.359       .  A
C121        N126   1.348       .  A
C121       C1088   1.474       .  S
N122        C123   1.369       .  A
C123        N124   1.368       .  A
C123        C129   1.471       .  S
N124        C125   1.358       .  A
C125        N126   1.346       .  A
C125       C1106   1.472       .  S
C127        N128   1.358       .  A
C127        N132   1.348   1_455  A
C127       C1070   1.470       .  S
N128        C129   1.367       .  A
C129        N130   1.367   1_455  A
N130        C131   1.359       .  A
C131        N132   1.348       .  A
C131       C1055   1.471       .  S
C133        N134   1.349       .  A
C133        N138   1.361       .  A
C133       C1016   1.476       .  S
N134        C135   1.349       .  A
C135        N136   1.360       .  A
C135       C1034   1.475       .  S
N136        C137   1.368       .  A
C137        N138   1.369       .  A
C137        C141   1.478       .  S
C139        N140   1.360       .  A
C139        N144   1.350   1_545  A
C139        C980   1.475       .  S
N140        C141   1.368       .  A
C141        N142   1.367       .  A
N142        C143   1.360   1_545  A
C143        N144   1.350       .  A
C143       C1001   1.474       .  S
C145        N146   1.355       .  A
C145        N150   1.348       .  A
C145        C962   1.468       .  S
N146        C147   1.364       .  A
C147        N148   1.371       .  A
C147        C155   1.470       .  S
N148        C149   1.360       .  A
C149        N150   1.350       .  A
C149        C944   1.478       .  S
C151        N152   1.346       .  A
C151        N156   1.356       .  A
C151        C926   1.467       .  S
N152        C153   1.346       .  A
C153        N154   1.360       .  A
C153        C911   1.473       .  S
N154        C155   1.370       .  A
C155        N156   1.365       .  A
C157        N158   1.360       .  A
C157        N162   1.347       .  A
C157        C893   1.474       .  S
N158        C159   1.369       .  A
C159        N160   1.368       .  A
C159        C167   1.477       .  S
N160        C161   1.359       .  A
C161        N162   1.348       .  A
C161        C872   1.473       .  S
C163        N164   1.347   1_545  A
C163        N168   1.361       .  A
C163        C857   1.477       .  S
N164        C165   1.346       .  A
C165        N166   1.359   1_565  A
C165        C839   1.473       .  S
N166        C167   1.369       .  A
C167        N168   1.371       .  A
C169        N170   1.356       .  A
C169        N174   1.349       .  A
C169        C803   1.472   1_565  S
N170        C171   1.366       .  A
C171        N172   1.369       .  A
C171        C177   1.472       .  S
N172        C173   1.361       .  A
C173        N174   1.350       .  A
C173        C818   1.476       .  S
C175        N176   1.359       .  A
C175        N180   1.347       .  A
C175        C764   1.469       .  S
N176        C177   1.368       .  A
C177        N178   1.369       .  A
N178        C179   1.358       .  A
C179        N180   1.345       .  A
C179        C782   1.471       .  S
C181        N182   1.362       .  A
C181        N186   1.348       .  A
C181        C728   1.477       .  S
N182        C183   1.371       .  A
C183        N184   1.368       .  A
C183        C191   1.478       .  S
N184        C185   1.358       .  A
C185        N186   1.347       .  A
C185        C746   1.472       .  S
C187        N188   1.347       .  A
C187        N192   1.359       .  A
C187        C713   1.478       .  S
N188        C189   1.349       .  A
C189        N190   1.361       .  A
C189        C692   1.476       .  S
N190        C191   1.370       .  A
C191        N192   1.370       .  A
C193        N194   1.358   1_556  A
C193        N198   1.347   1_556  A
C193        C674   1.470       .  S
N194        C195   1.367       .  A
C195        N196   1.369       .  A
C195        C203   1.472       .  S
N196        C197   1.359       .  A
C197        N198   1.346       .  A
C197        C659   1.470       .  S
C199        N200   1.349       .  A
C199        N204   1.358       .  A
C199        C623   1.469       .  S
N200        C201   1.349       .  A
C201        N202   1.359       .  A
C201        C638   1.474       .  S
N202        C203   1.368       .  A
C203        N204   1.366       .  A
C205        N206   1.351       .  A
C205        N210   1.358       .  A
C205        C584   1.474       .  S
N206        C207   1.352       .  A
C207        N208   1.359       .  A
C207        C602   1.473       .  S
N208        C209   1.366       .  A
C209        N210   1.365       .  A
C209        C213   1.473       .  S
C211        N212   1.359   1_655  A
C211        N216   1.350       .  A
C211        C548   1.475       .  S
N212        C213   1.367       .  A
C213        N214   1.368   1_455  A
N214        C215   1.358       .  A
C215        N216   1.350       .  A
C215        C569   1.475       .  S
O217       Zr253   2.429       .  S
O217        C228   1.291       .  A
O218       Zr252   2.446       .  S
O218        C229   1.293       .  A
O219       Zr225   2.419       .  S
O219        C230   1.289       .  A
O220       Zr225   2.442       .  S
O220        C231   1.291       .  A
O221       Zr255   2.434       .  S
O221        C231   1.292       .  A
O222       Zr254   2.444       .  S
O222        C230   1.292       .  A
O223       Zr225   2.418       .  S
O223        C229   1.289       .  A
O224       Zr225   2.446       .  S
O224        C228   1.292       .  A
Zr225       O226   2.336       .  S
Zr225       O227   2.334       .  S
Zr225       O235   2.335       .  S
Zr225       O233   2.346       .  S
O226       Zr252   2.340       .  S
O226       Zr255   2.332       .  S
O227       Zr253   2.335       .  S
O227       Zr254   2.340       .  S
C228       C1829   1.473       .  S
C229       C1376   1.468       .  S
C230       C1268   1.466       .  S
C231        C566   1.474       .  S
H232        O233   0.964       .  S
O233       Zr252   2.339       .  S
O233       Zr254   2.334       .  S
H234        O235   0.964       .  S
O235       Zr253   2.343       .  S
O235       Zr255   2.345       .  S
O236       Zr252   2.438       .  S
O236        C259   1.293       .  A
O237       Zr253   2.429       .  S
O237        C260   1.289       .  A
O238       Zr254   2.446       .  S
O238        C261   1.292       .  A
O239       Zr255   2.442       .  S
O239        C262   1.293       .  A
O240       Zr255   2.441       .  S
O240        C263   1.292       .  A
O241       Zr254   2.428       .  S
O241        C264   1.291       .  A
O242       Zr256   2.441       .  S
O242        C265   1.292       .  A
O243       Zr256   2.443       .  S
O243        C266   1.293       .  A
O244       Zr254   2.430       .  S
O244        C265   1.291       .  A
O245       Zr255   2.439       .  S
O245        C266   1.291       .  A
O246       Zr252   2.434       .  S
O246        C261   1.292       .  A
O247       Zr253   2.441       .  S
O247        C264   1.292       .  A
O248       Zr253   2.433       .  S
O248        C263   1.292       .  A
O249       Zr252   2.431       .  S
O249        C262   1.290       .  A
O250       Zr256   2.427       .  S
O250        C259   1.290       .  A
O251       Zr256   2.445       .  S
O251        C260   1.294       .  A
Zr252       O258   2.332       .  S
Zr252       O270   2.348       .  S
Zr253       O257   2.338       .  S
Zr253       O268   2.340       .  S
Zr254       O258   2.332       .  S
Zr254       O268   2.345       .  S
Zr255       O257   2.342       .  S
Zr255       O270   2.344       .  S
Zr256       O257   2.331       .  S
Zr256       O258   2.343       .  S
Zr256       O270   2.348       .  S
Zr256       O268   2.338       .  S
C259       C1592   1.467       .  S
C260       C1343   1.472       .  S
C261       C1703   1.474       .  S
C262        C677   1.470       .  S
C263       C1757   1.470       .  S
C264        C890   1.469       .  S
C265        C605   1.470       .  S
C266       C1160   1.474       .  S
H267        O268   0.964       .  S
H269        O270   0.964       .  S
O271       Zr307   2.450   1_556  S
O271        C282   1.295       .  A
O272       Zr306   2.427   1_545  S
O272        C283   1.289       .  A
O273       Zr279   2.436       .  S
O273        C284   1.291       .  A
O274       Zr279   2.445   1_556  S
O274        C285   1.294   1_565  A
O275       Zr309   2.439   1_546  S
O275        C285   1.291       .  A
O276       Zr308   2.446       .  S
O276        C284   1.294       .  A
O277       Zr279   2.436   1_545  S
O277        C283   1.292       .  A
O278       Zr279   2.428   1_556  S
O278        C282   1.289       .  A
Zr279       O280   2.331       .  S
Zr279       O281   2.340       .  S
Zr279       O289   2.346   1_554  S
Zr279       O287   2.343       .  S
O280       Zr306   2.334       .  S
O280       Zr309   2.339       .  S
O281       Zr307   2.338       .  S
O281       Zr308   2.340       .  S
C282       C1721   1.470       .  S
C283        C656   1.465       .  S
C284       C1127   1.474       .  S
C285        C551   1.475       .  S
H286        O287   0.965       .  S
O287       Zr306   2.340       .  S
O287       Zr308   2.337       .  S
H288        O289   0.965       .  S
O289       Zr307   2.350   1_556  S
O289       Zr309   2.345   1_556  S
O290       Zr306   2.424       .  S
O290        C313   1.291       .  A
O291       Zr307   2.452       .  S
O291        C314   1.294       .  A
O292       Zr308   2.437       .  S
O292        C315   1.292       .  A
O293       Zr309   2.445   1_445  S
O293        C316   1.292       .  A
O294       Zr309   2.437   1_556  S
O294        C317   1.293       .  A
O295       Zr308   2.421       .  S
O295        C318   1.288       .  A
O296       Zr310   2.434       .  S
O296        C319   1.292       .  A
O297       Zr310   2.439       .  S
O297        C320   1.291   1_655  A
O298       Zr308   2.447       .  S
O298        C319   1.293       .  A
O299       Zr309   2.434   1_455  S
O299        C320   1.292       .  A
O300       Zr306   2.444       .  S
O300        C315   1.292       .  A
O301       Zr307   2.449       .  S
O301        C318   1.295       .  A
O302       Zr307   2.448   1_556  S
O302        C317   1.293       .  A
O303       Zr306   2.434   1_545  S
O303        C316   1.292   1_655  A
O304       Zr310   2.439       .  S
O304        C313   1.291       .  A
O305       Zr310   2.435       .  S
O305        C314   1.292       .  A
Zr306       O312   2.332       .  S
Zr306       O324   2.346       .  S
Zr307       O311   2.343       .  S
Zr307       O322   2.347       .  S
Zr308       O312   2.332       .  S
Zr308       O322   2.347       .  S
Zr309       O311   2.338       .  S
Zr309       O324   2.341       .  S
Zr310       O311   2.336       .  S
Zr310       O312   2.337       .  S
Zr310       O324   2.346       .  S
Zr310       O322   2.344       .  S
C313       C1448   1.467       .  S
C314        C641   1.477       .  S
C315        C983   1.475       .  S
C316       C1556   1.473       .  S
C317       C1361   1.475       .  S
C318       C1610   1.468       .  S
C319        C710   1.475       .  S
C320       C1178   1.471       .  S
H321        O322   0.965       .  S
H323        O324   0.965       .  S
O325       Zr361   2.444       .  S
O325        C336   1.293       .  A
O326       Zr360   2.447       .  S
O326        C337   1.293       .  A
O327       Zr333   2.444       .  S
O327        C338   1.294       .  A
O328       Zr333   2.444       .  S
O328        C339   1.292       .  A
O329       Zr363   2.427       .  S
O329        C339   1.291       .  A
O330       Zr362   2.437       .  S
O330        C338   1.291       .  A
O331       Zr333   2.427       .  S
O331        C337   1.291       .  A
O332       Zr333   2.432       .  S
O332        C336   1.290       .  A
Zr333       O334   2.332       .  S
Zr333       O335   2.333       .  S
Zr333       O343   2.346       .  S
Zr333       O341   2.345       .  S
O334       Zr360   2.333       .  S
O334       Zr363   2.329       .  S
O335       Zr361   2.332       .  S
O335       Zr362   2.337       .  S
C336       C1685   1.472       .  S
C337        C908   1.471       .  S
C338        C800   1.473       .  S
C339       C1052   1.470       .  S
H340        O341   0.966       .  S
O341       Zr360   2.342       .  S
O341       Zr362   2.347       .  S
H342        O343   0.966       .  S
O343       Zr361   2.338       .  S
O343       Zr363   2.348       .  S
O344       Zr360   2.439       .  S
O344        C367   1.293       .  A
O345       Zr361   2.424       .  S
O345        C368   1.289       .  A
O346       Zr362   2.430       .  S
O346        C369   1.289       .  A
O347       Zr363   2.436       .  S
O347        C370   1.292       .  A
O348       Zr363   2.433       .  S
O348        C371   1.290       .  A
O349       Zr362   2.438       .  S
O349        C372   1.293       .  A
O350       Zr364   2.437       .  S
O350        C373   1.291       .  A
O351       Zr364   2.442       .  S
O351        C374   1.293       .  A
O352       Zr362   2.445       .  S
O352        C373   1.294       .  A
O353       Zr363   2.438       .  S
O353        C374   1.292       .  A
O354       Zr360   2.445       .  S
O354        C369   1.294       .  A
O355       Zr361   2.424       .  S
O355        C372   1.288       .  A
O356       Zr361   2.438       .  S
O356        C371   1.292       .  A
O357       Zr360   2.444       .  S
O357        C370   1.292       .  A
O358       Zr364   2.449       .  S
O358        C367   1.293       .  A
O359       Zr364   2.457       .  S
O359        C368   1.297       .  A
Zr360       O366   2.340       .  S
Zr360       O378   2.345       .  S
Zr361       O365   2.340       .  S
Zr361       O376   2.347       .  S
Zr362       O366   2.338       .  S
Zr362       O376   2.338       .  S
Zr363       O365   2.338       .  S
Zr363       O378   2.341       .  S
Zr364       O365   2.340       .  S
Zr364       O366   2.345       .  S
Zr364       O378   2.348       .  S
Zr364       O376   2.344       .  S
C367       C1415   1.475       .  S
C368        C947   1.473       .  S
C369       C1484   1.472       .  S
C370       C1019   1.474       .  S
C371       C1538   1.468       .  S
C372       C1250   1.464       .  S
C373       C1109   1.474       .  S
C374        C731   1.473       .  S
H375        O376   0.965       .  S
H377        O378   0.966       .  S
O379       Zr415   2.449       .  S
O379        C390   1.293       .  A
O380       Zr414   2.433       .  S
O380        C391   1.292       .  A
O381       Zr387   2.445       .  S
O381        C392   1.292       .  A
O382       Zr387   2.448       .  S
O382        C393   1.295       .  A
O383       Zr417   2.450       .  S
O383        C393   1.293       .  A
O384       Zr416   2.434       .  S
O384        C392   1.292       .  A
O385       Zr387   2.427       .  S
O385        C391   1.289       .  A
O386       Zr387   2.432       .  S
O386        C390   1.291       .  A
Zr387       O388   2.340       .  S
Zr387       O389   2.335       .  S
Zr387       O397   2.344       .  S
Zr387       O395   2.345       .  S
O388       Zr414   2.342       .  S
O388       Zr417   2.339       .  S
O389       Zr415   2.338       .  S
O389       Zr416   2.338       .  S
C390       C1811   1.473       .  S
C391       C1394   1.465       .  S
C392        C836   1.473       .  S
C393       C1739   1.480       .  S
H394        O395   0.965       .  S
O395       Zr414   2.340       .  S
O395       Zr416   2.338       .  S
H396        O397   0.965       .  S
O397       Zr415   2.341       .  S
O397       Zr417   2.348       .  S
O398       Zr414   2.443       .  S
O398        C421   1.292       .  A
O399       Zr415   2.437       .  S
O399        C422   1.293       .  A
O400       Zr416   2.437       .  S
O400        C423   1.291       .  A
O401       Zr417   2.435       .  S
O401        C424   1.292       .  A
O402       Zr417   2.435       .  S
O402        C425   1.291       .  A
O403       Zr416   2.435       .  S
O403        C426   1.292       .  A
O404       Zr418   2.431       .  S
O404        C427   1.291       .  A
O405       Zr418   2.429       .  S
O405        C428   1.289       .  A
O406       Zr416   2.433       .  S
O406        C427   1.290       .  A
O407       Zr417   2.449       .  S
O407        C428   1.294       .  A
O408       Zr414   2.438       .  S
O408        C423   1.293       .  A
O409       Zr415   2.429       .  S
O409        C426   1.290       .  A
O410       Zr415   2.438       .  S
O410        C425   1.292       .  A
O411       Zr414   2.445       .  S
O411        C424   1.292       .  A
O412       Zr418   2.433       .  S
O412        C421   1.292       .  A
O413       Zr418   2.433       .  S
O413        C422   1.290       .  A
Zr414       O420   2.339       .  S
Zr414       O432   2.341       .  S
Zr415       O419   2.332       .  S
Zr415       O430   2.343       .  S
Zr416       O420   2.343       .  S
Zr416       O430   2.339       .  S
Zr417       O419   2.334       .  S
Zr417       O432   2.342       .  S
Zr418       O419   2.339       .  S
Zr418       O420   2.335       .  S
Zr418       O432   2.341       .  S
Zr418       O430   2.342       .  S
C421       C1772   1.472       .  S
C422       C1199   1.470       .  S
C423       C1289   1.472       .  S
C424        C587   1.474       .  S
C425       C1307   1.470       .  S
C426        C767   1.466       .  S
C427       C1631   1.466       .  S
C428        C875   1.472       .  S
H429        O430   0.965       .  S
H431        O432   0.965       .  S
O433       Zr469   2.436       .  S
O433        C444   1.292       .  A
O434       Zr468   2.443       .  S
O434        C445   1.292       .  A
O435       Zr441   2.429       .  S
O435        C446   1.291       .  A
O436       Zr441   2.437       .  S
O436        C447   1.291       .  A
O437       Zr471   2.439       .  S
O437        C447   1.293       .  A
O438       Zr470   2.442       .  S
O438        C446   1.292       .  A
O439       Zr441   2.430       .  S
O439        C445   1.291       .  A
O440       Zr441   2.435       .  S
O440        C444   1.290       .  A
Zr441       O442   2.337       .  S
Zr441       O443   2.335       .  S
Zr441       O451   2.342       .  S
Zr441       O449   2.346       .  S
O442       Zr468   2.341       .  S
O442       Zr471   2.338       .  S
O443       Zr469   2.332       .  S
O443       Zr470   2.336       .  S
C444       C1577   1.470       .  S
C445        C998   1.470       .  S
C446       C1145   1.470       .  S
C447        C749   1.471       .  S
H448        O449   0.966       .  S
O449       Zr468   2.351       .  S
O449       Zr470   2.352       .  S
H450        O451   0.966       .  S
O451       Zr469   2.342       .  S
O451       Zr471   2.341       .  S
O452       Zr468   2.450       .  S
O452        C475   1.295       .  A
O453       Zr469   2.435       .  S
O453        C476   1.291       .  A
O454       Zr470   2.425       .  S
O454        C477   1.289       .  A
O455       Zr471   2.431       .  S
O455        C478   1.292       .  A
O456       Zr471   2.440       .  S
O456        C479   1.291       .  A
O457       Zr470   2.440       .  S
O457        C480   1.293       .  A
O458       Zr472   2.425       .  S
O458        C481   1.289       .  A
O459       Zr472   2.425       .  S
O459        C482   1.291       .  A
O460       Zr470   2.450       .  S
O460        C481   1.294       .  A
O461       Zr471   2.439       .  S
O461        C482   1.291       .  A
O462       Zr468   2.442       .  S
O462        C477   1.294       .  A
O463       Zr469   2.433       .  S
O463        C480   1.290       .  A
O464       Zr469   2.428       .  S
O464        C479   1.291       .  A
O465       Zr468   2.445       .  S
O465        C478   1.292       .  A
O466       Zr472   2.446       .  S
O466        C475   1.293       .  A
O467       Zr472   2.437       .  S
O467        C476   1.293       .  A
Zr468       O474   2.334       .  S
Zr468       O486   2.343       .  S
Zr469       O473   2.337       .  S
Zr469       O484   2.345       .  S
Zr470       O474   2.336       .  S
Zr470       O484   2.336       .  S
Zr471       O473   2.336       .  S
Zr471       O486   2.344       .  S
Zr472       O473   2.335       .  S
Zr472       O474   2.331       .  S
Zr472       O486   2.338       .  S
Zr472       O484   2.340       .  S
C475       C1502   1.480       .  S
C476       C1037   1.471       .  S
C477       C1433   1.468       .  S
C478        C965   1.470       .  S
C479       C1469   1.470       .  S
C480        C620   1.470       .  S
C481        C695   1.472       .  S
C482       C1073   1.468       .  S
H483        O484   0.965       .  S
H485        O486   0.966       .  S
O487       Zr523   2.446       .  S
O487        C498   1.295       .  A
O488       Zr522   2.434       .  S
O488        C499   1.291       .  A
O489       Zr495   2.434       .  S
O489        C500   1.291       .  A
O490       Zr495   2.432       .  S
O490        C501   1.292       .  A
O491       Zr525   2.436       .  S
O491        C501   1.290       .  A
O492       Zr524   2.442       .  S
O492        C500   1.293       .  A
O493       Zr495   2.451       .  S
O493        C499   1.295       .  A
O494       Zr495   2.441       .  S
O494        C498   1.292       .  A
Zr495       O496   2.335       .  S
Zr495       O497   2.342       .  S
Zr495       O505   2.345       .  S
Zr495       O503   2.339       .  S
O496       Zr522   2.337       .  S
O496       Zr525   2.339       .  S
O497       Zr523   2.339       .  S
O497       Zr524   2.336       .  S
C498       C1793   1.476       .  S
C499       C1214   1.476       .  S
C500        C821   1.471       .  S
C501       C1325   1.469       .  S
H502        O503   0.966       .  S
O503       Zr522   2.348       .  S
O503       Zr524   2.340       .  S
H504        O505   0.966       .  S
O505       Zr523   2.342       .  S
O505       Zr525   2.340       .  S
O506       Zr522   2.443       .  S
O506        C529   1.293       .  A
O507       Zr523   2.443   1_545  S
O507        C530   1.292   1_655  A
O508       Zr524   2.440       .  S
O508        C531   1.293       .  A
O509       Zr525   2.440       .  S
O509        C532   1.291       .  A
O510       Zr525   2.441       .  S
O510        C533   1.293       .  A
O511       Zr524   2.441   1_545  S
O511        C534   1.292       .  A
O512       Zr526   2.450       .  S
O512        C535   1.295   1_565  A
O513       Zr526   2.444   1_455  S
O513        C536   1.292       .  A
O514       Zr524   2.434       .  S
O514        C535   1.290   1_565  A
O515       Zr525   2.425       .  S
O515        C536   1.290   1_655  A
O516       Zr522   2.432       .  S
O516        C531   1.290       .  A
O517       Zr523   2.441   1_545  S
O517        C534   1.293       .  A
O518       Zr523   2.443       .  S
O518        C533   1.292       .  A
O519       Zr522   2.440       .  S
O519        C532   1.293       .  A
O520       Zr526   2.430       .  S
O520        C529   1.290       .  A
O521       Zr526   2.433   1_445  S
O521        C530   1.291       .  A
Zr522       O528   2.339       .  S
Zr522       O540   2.340       .  S
Zr523       O527   2.340       .  S
Zr523       O538   2.343       .  S
Zr524       O528   2.342       .  S
Zr524       O538   2.344       .  S
Zr525       O527   2.337       .  S
Zr525       O540   2.346       .  S
Zr526       O527   2.340       .  S
Zr526       O528   2.337       .  S
Zr526       O540   2.348       .  S
Zr526       O538   2.341       .  S
C529       C1523   1.469       .  S
C530       C1235   1.471       .  S
C531        C929   1.469       .  S
C532       C1667   1.474       .  S
C533        C854   1.475   1_655  S
C534       C1646   1.473       .  S
C535       C1091   1.474       .  S
C536        C785   1.469       .  S
H537        O538   0.966   1_545  S
H539        O540   0.967       .  S
C541        N547   1.335       .  A
C541        C546   1.384       .  A
C541        C542   1.396       .  A
C542        C543   1.394       .  A
C542        H553   1.083       .  S
C543        C552   1.370       .  A
C543        C544   1.383       .  A
C544        N550   1.349       .  A
C544        C545   1.413   1_655  A
C545        C546   1.411   1_455  A
C545        H554   1.082       .  S
C546        C549   1.391   1_655  A
N547        C548   1.354       .  A
N547        H557   1.045       .  S
C548        C549   1.401   1_655  A
C549        H555   1.082       .  S
N550        C551   1.361       .  A
N550        H558   1.045   1_655  S
C551        C552   1.391       .  A
C552        H556   1.083       .  S
C559        N565   1.350       .  A
C559        C564   1.383       .  A
C559        C560   1.413       .  A
C560        C561   1.412       .  A
C560        H571   1.082       .  S
C561        C570   1.392       .  A
C561        C562   1.384       .  A
C562        N568   1.334       .  A
C562        C563   1.395       .  A
C563        C564   1.392       .  A
C563        H572   1.083       .  S
C564        C567   1.368       .  A
N565        C566   1.361       .  A
N565        H575   1.044       .  S
C566        C567   1.391       .  A
C567        H573   1.083       .  S
N568        C569   1.353       .  A
N568        H576   1.045       .  S
C569        C570   1.402       .  A
C570        H574   1.082       .  S
C577        N583   1.337       .  A
C577        C582   1.384       .  A
C577        C578   1.396       .  A
C578        C579   1.394       .  A
C578        H589   1.083       .  S
C579        C588   1.368       .  A
C579        C580   1.384       .  A
C580        N586   1.350       .  A
C580        C581   1.411       .  A
C581        C582   1.411       .  A
C581        H590   1.082       .  S
C582        C585   1.388       .  A
N583        C584   1.353       .  A
N583        H593   1.045       .  S
C584        C585   1.400       .  A
C585        H591   1.082       .  S
N586        C587   1.360       .  A
N586        H594   1.045       .  S
C587        C588   1.391       .  A
C588        H592   1.083       .  S
C595        N601   1.335       .  A
C595        C600   1.384       .  A
C595        C596   1.395       .  A
C596        C597   1.393       .  A
C596        H607   1.083       .  S
C597        C606   1.367       .  A
C597        C598   1.384       .  A
C598        N604   1.348       .  A
C598        C599   1.410       .  A
C599        C600   1.410       .  A
C599        H608   1.082       .  S
C600        C603   1.388       .  A
N601        C602   1.353       .  A
N601        H611   1.045       .  S
C602        C603   1.400       .  A
C603        H609   1.082       .  S
N604        C605   1.359       .  A
N604        H612   1.045       .  S
C605        C606   1.391       .  A
C606        H610   1.083       .  S
C613        N619   1.346       .  A
C613        C618   1.384       .  A
C613        C614   1.410       .  A
C614        C615   1.408   1_455  A
C614        H625   1.082       .  S
C615        C624   1.388       .  A
C615        C616   1.385       .  A
C616        N622   1.334       .  A
C616        C617   1.396   1_655  A
C617        C618   1.394       .  A
C617        H626   1.083       .  S
C618        C621   1.371       .  A
N619        C620   1.359       .  A
N619        H629   1.045       .  S
C620        C621   1.391       .  A
C621        H627   1.083       .  S
N622        C623   1.353       .  A
N622        H630   1.045       .  S
C623        C624   1.398       .  A
C624        H628   1.082       .  S
C631        N637   1.336       .  A
C631        C636   1.384       .  A
C631        C632   1.397       .  A
C632        C633   1.395       .  A
C632        H643   1.083       .  S
C633        C642   1.370       .  A
C633        C634   1.384       .  A
C634        N640   1.350       .  A
C634        C635   1.411       .  A
C635        C636   1.410       .  A
C635        H644   1.082       .  S
C636        C639   1.389       .  A
N637        C638   1.354       .  A
N637        H647   1.045       .  S
C638        C639   1.399       .  A
C639        H645   1.082       .  S
N640        C641   1.360       .  A
N640        H648   1.044       .  S
C641        C642   1.393       .  A
C642        H646   1.083       .  S
C649        N655   1.338       .  A
C649        C654   1.385       .  A
C649        C650   1.394       .  A
C650        C651   1.395       .  A
C650        H661   1.083       .  S
C651        C660   1.363       .  A
C651        C652   1.385       .  A
C652        N658   1.350       .  A
C652        C653   1.407       .  A
C653        C654   1.408       .  A
C653        H662   1.082       .  S
C654        C657   1.380       .  A
N655        C656   1.351       .  A
N655        H665   1.045       .  S
C656        C657   1.398       .  A
C657        H663   1.082       .  S
N658        C659   1.357       .  A
N658        H666   1.044       .  S
C659        C660   1.392       .  A
C660        H664   1.083       .  S
C667        N673   1.351       .  A
C667        C672   1.384       .  A
C667        C668   1.410       .  A
C668        C669   1.411       .  A
C668        H679   1.082       .  S
C669        C678   1.385       .  A
C669        C670   1.385       .  A
C670        N676   1.336       .  A
C670        C671   1.392       .  A
C671        C672   1.392       .  A
C671        H680   1.083       .  S
C672        C675   1.361       .  A
N673        C674   1.359       .  A
N673        H683   1.044       .  S
C674        C675   1.391       .  A
C675        H681   1.083       .  S
N676        C677   1.351       .  A
N676        H684   1.045       .  S
C677        C678   1.401       .  A
C678        H682   1.082       .  S
C685        N691   1.353       .  A
C685        C690   1.384       .  A
C685        C686   1.410       .  A
C686        C687   1.412       .  A
C686        H697   1.082       .  S
C687        C696   1.383       .  A
C687        C688   1.385       .  A
C688        N694   1.340   1_655  A
C688        C689   1.394       .  A
C689        C690   1.396       .  A
C689        H698   1.083       .  S
C690        C693   1.363       .  A
N691        C692   1.359       .  A
N691        H701   1.044       .  S
C692        C693   1.393       .  A
C693        H699   1.083       .  S
N694        C695   1.352       .  A
N694        H702   1.045       .  S
C695        C696   1.400   1_455  A
C696        H700   1.082       .  S
C703        N709   1.340       .  A
C703        C708   1.385       .  A
C703        C704   1.396       .  A
C704        C705   1.396       .  A
C704        H715   1.083       .  S
C705        C714   1.365       .  A
C705        C706   1.384       .  A
C706        N712   1.353       .  A
C706        C707   1.410       .  A
C707        C708   1.412       .  A
C707        H716   1.082       .  S
C708        C711   1.384       .  A
N709        C710   1.353       .  A
N709        H719   1.045       .  S
C710        C711   1.400       .  A
C711        H717   1.082       .  S
N712        C713   1.360       .  A
N712        H720   1.044       .  S
C713        C714   1.394       .  A
C714        H718   1.083       .  S
C721        N727   1.352       .  A
C721        C726   1.384       .  A
C721        C722   1.408       .  A
C722        C723   1.410       .  A
C722        H733   1.082       .  S
C723        C732   1.382       .  A
C723        C724   1.385       .  A
C724        N730   1.341       .  A
C724        C725   1.397       .  A
C725        C726   1.398       .  A
C725        H734   1.083       .  S
C726        C729   1.366       .  A
N727        C728   1.358       .  A
N727        H737   1.044       .  S
C728        C729   1.395       .  A
C729        H735   1.083       .  S
N730        C731   1.353       .  A
N730        H738   1.045       .  S
C731        C732   1.399       .  A
C732        H736   1.082       .  S
C739        N745   1.334       .  A
C739        C744   1.384       .  A
C739        C740   1.396       .  A
C740        C741   1.393       .  A
C740        H751   1.083       .  S
C741        C750   1.370       .  A
C741        C742   1.384       .  A
C742        N748   1.348       .  A
C742        C743   1.411       .  A
C743        C744   1.410       .  A
C743        H752   1.082       .  S
C744        C747   1.390       .  A
N745        C746   1.353       .  A
N745        H755   1.045       .  S
C746        C747   1.400       .  A
C747        H753   1.082       .  S
N748        C749   1.360       .  A
N748        H756   1.045       .  S
C749        C750   1.390       .  A
C750        H754   1.083       .  S
C757        N763   1.351       .  A
C757        C762   1.384       .  A
C757        C758   1.408       .  A
C758        C759   1.409       .  A
C758        H769   1.082       .  S
C759        C768   1.381       .  A
C759        C760   1.385       .  A
C760        N766   1.337       .  A
C760        C761   1.392       .  A
C761        C762   1.393       .  A
C761        H770   1.083       .  S
C762        C765   1.360       .  A
N763        C764   1.358       .  A
N763        H773   1.044       .  S
C764        C765   1.392       .  A
C765        H771   1.083       .  S
N766        C767   1.351       .  A
N766        H774   1.045       .  S
C767        C768   1.399       .  A
C768        H772   1.082       .  S
C775        N781   1.332       .  A
C775        C780   1.384       .  A
C775        C776   1.395       .  A
C776        C777   1.392       .  A
C776        H787   1.083       .  S
C777        C786   1.367       .  A
C777        C778   1.384       .  A
C778        N784   1.347       .  A
C778        C779   1.410       .  A
C779        C780   1.409       .  A
C779        H788   1.082       .  S
C780        C783   1.390       .  A
N781        C782   1.354       .  A
N781        H791   1.045       .  S
C782        C783   1.399       .  A
C783        H789   1.082       .  S
N784        C785   1.358       .  A
N784        H792   1.044       .  S
C785        C786   1.391       .  A
C786        H790   1.083       .  S
C793        N799   1.349       .  A
C793        C798   1.383       .  A
C793        C794   1.413       .  A
C794        C795   1.411       .  A
C794        H805   1.082       .  S
C795        C804   1.390       .  A
C795        C796   1.384       .  A
C796        N802   1.333       .  A
C796        C797   1.395       .  A
C797        C798   1.392       .  A
C797        H806   1.083       .  S
C798        C801   1.369       .  A
N799        C800   1.361       .  A
N799        H809   1.045       .  S
C800        C801   1.390       .  A
C801        H807   1.083       .  S
N802        C803   1.352       .  A
N802        H810   1.045       .  S
C803        C804   1.401       .  A
C804        H808   1.082       .  S
C811        N817   1.353       .  A
C811        C816   1.384       .  A
C811        C812   1.410       .  A
C812        C813   1.411       .  A
C812        H823   1.082       .  S
C813        C822   1.383       .  A
C813        C814   1.385       .  A
C814        N820   1.340       .  A
C814        C815   1.396       .  A
C815        C816   1.397       .  A
C815        H824   1.083   1_565  S
C816        C819   1.365       .  A
N817        C818   1.359       .  A
N817        H827   1.044       .  S
C818        C819   1.393       .  A
C819        H825   1.083   1_565  S
N820        C821   1.353       .  A
N820        H828   1.045       .  S
C821        C822   1.399       .  A
C822        H826   1.082       .  S
C829        N835   1.348       .  A
C829        C834   1.384       .  A
C829        C830   1.411       .  A
C830        C831   1.409       .  A
C830        H841   1.082       .  S
C831        C840   1.390       .  A
C831        C832   1.384       .  A
C832        N838   1.334       .  A
C832        C833   1.397       .  A
C833        C834   1.394       .  A
C833        H842   1.083       .  S
C834        C837   1.371       .  A
N835        C836   1.359       .  A
N835        H845   1.044       .  S
C836        C837   1.392       .  A
C837        H843   1.083       .  S
N838        C839   1.354       .  A
N838        H846   1.045       .  S
C839        C840   1.399       .  A
C840        H844   1.082       .  S
C847        N853   1.339       .  A
C847        C852   1.385   1_565  A
C847        C848   1.395       .  A
C848        C849   1.395       .  A
C848        H859   1.083       .  S
C849        C858   1.363       .  A
C849        C850   1.384   1_565  A
C850        N856   1.354       .  A
C850        C851   1.410       .  A
C851        C852   1.412       .  A
C851        H860   1.082       .  S
C852        C855   1.385       .  A
N853        C854   1.353       .  A
N853        H863   1.045       .  S
C854        C855   1.401   1_565  A
C855        H861   1.082       .  S
N856        C857   1.359       .  A
N856        H864   1.044       .  S
C857        C858   1.393   1_545  A
C858        H862   1.083       .  S
C865        N871   1.352       .  A
C865        C870   1.384       .  A
C865        C866   1.410       .  A
C866        C867   1.411       .  A
C866        H877   1.082       .  S
C867        C876   1.384       .  A
C867        C868   1.385       .  A
C868        N874   1.338       .  A
C868        C869   1.394       .  A
C869        C870   1.394       .  A
C869        H878   1.083       .  S
C870        C873   1.364       .  A
N871        C872   1.359       .  A
N871        H881   1.044       .  S
C872        C873   1.392       .  A
C873        H879   1.083       .  S
N874        C875   1.351       .  A
N874        H882   1.045       .  S
C875        C876   1.401       .  A
C876        H880   1.082       .  S
C883        N889   1.347       .  A
C883        C888   1.384       .  A
C883        C884   1.411       .  A
C884        C885   1.409       .  A
C884        H895   1.082       .  S
C885        C894   1.390       .  A
C885        C886   1.384       .  A
C886        N892   1.333       .  A
C886        C887   1.396       .  A
C887        C888   1.392       .  A
C887        H896   1.083       .  S
C888        C891   1.368       .  A
N889        C890   1.359       .  A
N889        H899   1.045       .  S
C890        C891   1.391       .  A
C891        H897   1.083       .  S
N892        C893   1.354       .  A
N892        H900   1.045       .  S
C893        C894   1.400       .  A
C894        H898   1.082       .  S
C901        N907   1.347       .  A
C901        C906   1.384       .  A
C901        C902   1.411   1_545  A
C902        C903   1.409       .  A
C902        H913   1.082       .  S
C903        C912   1.391       .  A
C903        C904   1.384       .  A
C904        N910   1.332       .  A
C904        C905   1.396   1_565  A
C905        C906   1.393       .  A
C905        H914   1.083       .  S
C906        C909   1.371       .  A
N907        C908   1.358       .  A
N907        H917   1.044       .  S
C908        C909   1.392       .  A
C909        H915   1.083       .  S
N910        C911   1.354       .  A
N910        H918   1.045       .  S
C911        C912   1.400       .  A
C912        H916   1.082       .  S
C919        N925   1.350       .  A
C919        C924   1.384       .  A
C919        C920   1.408       .  A
C920        C921   1.409       .  A
C920        H931   1.082       .  S
C921        C930   1.383       .  A
C921        C922   1.385       .  A
C922        N928   1.336       .  A
C922        C923   1.393       .  A
C923        C924   1.392       .  A
C923        H932   1.083       .  S
C924        C927   1.362       .  A
N925        C926   1.357       .  A
N925        H935   1.044       .  S
C926        C927   1.391       .  A
C927        H933   1.083       .  S
N928        C929   1.351       .  A
N928        H936   1.045       .  S
C929        C930   1.400       .  A
C930        H934   1.082       .  S
C937        N943   1.355       .  A
C937        C942   1.384       .  A
C937        C938   1.412       .  A
C938        C939   1.414       .  A
C938        H949   1.082       .  S
C939        C948   1.385       .  A
C939        C940   1.385       .  A
C940        N946   1.339       .  A
C940        C941   1.393       .  A
C941        C942   1.394       .  A
C941        H950   1.083       .  S
C942        C945   1.362       .  A
N943        C944   1.361       .  A
N943        H953   1.044       .  S
C944        C945   1.391       .  A
C945        H951   1.083       .  S
N946        C947   1.350       .  A
N946        H954   1.045       .  S
C947        C948   1.403       .  A
C948        H952   1.082       .  S
C955        N961   1.333       .  A
C955        C960   1.384       .  A
C955        C956   1.395       .  A
C956        C957   1.392       .  A
C956        H967   1.083       .  S
C957        C966   1.369       .  A
C957        C958   1.384       .  A
C958        N964   1.346       .  A
C958        C959   1.410       .  A
C959        C960   1.408       .  A
C959        H968   1.082       .  S
C960        C963   1.388       .  A
N961        C962   1.353       .  A
N961        H971   1.045       .  S
C962        C963   1.399       .  A
C963        H969   1.082       .  S
N964        C965   1.359       .  A
N964        H972   1.044       .  S
C965        C966   1.391       .  A
C966        H970   1.083       .  S
C973        N979   1.338       .  A
C973        C978   1.384   1_565  A
C973        C974   1.399       .  A
C974        C975   1.397       .  A
C974        H985   1.083       .  S
C975        C984   1.372       .  A
C975        C976   1.384   1_565  A
C976        N982   1.349       .  A
C976        C977   1.410       .  A
C977        C978   1.409       .  A
C977        H986   1.082       .  S
C978        C981   1.388       .  A
N979        C980   1.355   1_565  A
N979        H989   1.045       .  S
C980        C981   1.399       .  A
C981        H987   1.082       .  S
N982        C983   1.359   1_545  A
N982        H990   1.045       .  S
C983        C984   1.393       .  A
C984        H988   1.083       .  S
C991        N997   1.347       .  A
C991        C996   1.384       .  A
C991        C992   1.410       .  A
C992        C993   1.409       .  A
C992       H1003   1.082       .  S
C993       C1002   1.388       .  A
C993        C994   1.384       .  A
C994       N1000   1.335       .  A
C994        C995   1.397       .  A
C995        C996   1.394       .  A
C995       H1004   1.083       .  S
C996        C999   1.370       .  A
N997        C998   1.358       .  A
N997       H1007   1.045       .  S
C998        C999   1.392       .  A
C999       H1005   1.083       .  S
N1000      C1001   1.354       .  A
N1000      H1008   1.045       .  S
C1001      C1002   1.400       .  A
C1002      H1006   1.082       .  S
C1009      N1015   1.336       .  A
C1009      C1014   1.384       .  A
C1009      C1010   1.398       .  A
C1010      C1011   1.395       .  A
C1010      H1021   1.083       .  S
C1011      C1020   1.372       .  A
C1011      C1012   1.384       .  A
C1012      N1018   1.348       .  A
C1012      C1013   1.411       .  A
C1013      C1014   1.410       .  A
C1013      H1022   1.082       .  S
C1014      C1017   1.390       .  A
N1015      C1016   1.355       .  A
N1015      H1025   1.045       .  S
C1016      C1017   1.400       .  A
C1017      H1023   1.082       .  S
N1018      C1019   1.359       .  A
N1018      H1026   1.044       .  S
C1019      C1020   1.393       .  A
C1020      H1024   1.083       .  S
C1027      N1033   1.335       .  A
C1027      C1032   1.384       .  A
C1027      C1028   1.397       .  A
C1028      C1029   1.395       .  A
C1028      H1039   1.083       .  S
C1029      C1038   1.371       .  A
C1029      C1030   1.384       .  A
C1030      N1036   1.347   1_655  A
C1030      C1031   1.410       .  A
C1031      C1032   1.409       .  A
C1031      H1040   1.082       .  S
C1032      C1035   1.389       .  A
N1033      C1034   1.355       .  A
N1033      H1043   1.045       .  S
C1034      C1035   1.399       .  A
C1035      H1041   1.082       .  S
N1036      C1037   1.359       .  A
N1036      H1044   1.045       .  S
C1037      C1038   1.391   1_455  A
C1038      H1042   1.083       .  S
C1045      N1051   1.346       .  A
C1045      C1050   1.384       .  A
C1045      C1046   1.409       .  A
C1046      C1047   1.407       .  A
C1046      H1057   1.082       .  S
C1047      C1056   1.387       .  A
C1047      C1048   1.384       .  A
C1048      N1054   1.335       .  A
C1048      C1049   1.397       .  A
C1049      C1050   1.394       .  A
C1049      H1058   1.083       .  S
C1050      C1053   1.370       .  A
N1051      C1052   1.358       .  A
N1051      H1061   1.045       .  S
C1052      C1053   1.392       .  A
C1053      H1059   1.083       .  S
N1054      C1055   1.354       .  A
N1054      H1062   1.045       .  S
C1055      C1056   1.398       .  A
C1056      H1060   1.082       .  S
C1063      N1069   1.332       .  A
C1063      C1068   1.384       .  A
C1063      C1064   1.393       .  A
C1064      C1065   1.390       .  A
C1064      H1075   1.083       .  S
C1065      C1074   1.366       .  A
C1065      C1066   1.384       .  A
C1066      N1072   1.347       .  A
C1066      C1067   1.411       .  A
C1067      C1068   1.410       .  A
C1067      H1076   1.082       .  S
C1068      C1071   1.389       .  A
N1069      C1070   1.352       .  A
N1069      H1079   1.045       .  S
C1070      C1071   1.400       .  A
C1071      H1077   1.082       .  S
N1072      C1073   1.359       .  A
N1072      H1080   1.044       .  S
C1073      C1074   1.390       .  A
C1074      H1078   1.083       .  S
C1081      N1087   1.353       .  A
C1081      C1086   1.384   1_655  A
C1081      C1082   1.411       .  A
C1082      C1083   1.413       .  A
C1082      H1093   1.082       .  S
C1083      C1092   1.385       .  A
C1083      C1084   1.385       .  A
C1084      N1090   1.338       .  A
C1084      C1085   1.393   1_655  A
C1085      C1086   1.394       .  A
C1085      H1094   1.083       .  S
C1086      C1089   1.362       .  A
N1087      C1088   1.360   1_655  A
N1087      H1097   1.044       .  S
C1088      C1089   1.392       .  A
C1089      H1095   1.083       .  S
N1090      C1091   1.352       .  A
N1090      H1098   1.045       .  S
C1091      C1092   1.402       .  A
C1092      H1096   1.082       .  S
C1099      N1105   1.334       .  A
C1099      C1104   1.384       .  A
C1099      C1100   1.397       .  A
C1100      C1101   1.394       .  A
C1100      H1111   1.083       .  S
C1101      C1110   1.372       .  A
C1101      C1102   1.384       .  A
C1102      N1108   1.347       .  A
C1102      C1103   1.411       .  A
C1103      C1104   1.409       .  A
C1103      H1112   1.082       .  S
C1104      C1107   1.390       .  A
N1105      C1106   1.354       .  A
N1105      H1115   1.045       .  S
C1106      C1107   1.399       .  A
C1107      H1113   1.082       .  S
N1108      C1109   1.360       .  A
N1108      H1116   1.045       .  S
C1109      C1110   1.392       .  A
C1110      H1114   1.083       .  S
C1117      N1123   1.352       .  A
C1117      C1122   1.384       .  A
C1117      C1118   1.409       .  A
C1118      C1119   1.411       .  A
C1118      H1129   1.082       .  S
C1119      C1128   1.383       .  A
C1119      C1120   1.385       .  A
C1120      N1126   1.340       .  A
C1120      C1121   1.395       .  A
C1121      C1122   1.396       .  A
C1121      H1130   1.083       .  S
C1122      C1125   1.364       .  A
N1123      C1124   1.358       .  A
N1123      H1133   1.044       .  S
C1124      C1125   1.393       .  A
C1125      H1131   1.083       .  S
N1126      C1127   1.353       .  A
N1126      H1134   1.045       .  S
C1127      C1128   1.400       .  A
C1128      H1132   1.082       .  S
C1135      N1141   1.334       .  A
C1135      C1140   1.384       .  A
C1135      C1136   1.396       .  A
C1136      C1137   1.393       .  A
C1136      H1147   1.083       .  S
C1137      C1146   1.369       .  A
C1137      C1138   1.384       .  A
C1138      N1144   1.347       .  A
C1138      C1139   1.410       .  A
C1139      C1140   1.408       .  A
C1139      H1148   1.082       .  S
C1140      C1143   1.388       .  A
N1141      C1142   1.354       .  A
N1141      H1151   1.045       .  S
C1142      C1143   1.399       .  A
C1143      H1149   1.082       .  S
N1144      C1145   1.358       .  A
N1144      H1152   1.044       .  S
C1145      C1146   1.392       .  A
C1146      H1150   1.083       .  S
C1153      N1159   1.338       .  A
C1153      C1158   1.385       .  A
C1153      C1154   1.394       .  A
C1154      C1155   1.394       .  A
C1154      H1165   1.083       .  S
C1155      C1164   1.363       .  A
C1155      C1156   1.384       .  A
C1156      N1162   1.353       .  A
C1156      C1157   1.410       .  A
C1157      C1158   1.412       .  A
C1157      H1166   1.082       .  S
C1158      C1161   1.385       .  A
N1159      C1160   1.352       .  A
N1159      H1169   1.045       .  S
C1160      C1161   1.401       .  A
C1161      H1167   1.082       .  S
N1162      C1163   1.359   1_545  A
N1162      H1170   1.044   1_545  S
C1163      C1164   1.393   1_565  A
C1164      H1168   1.083       .  S
C1171      N1177   1.348       .  A
C1171      C1176   1.384       .  A
C1171      C1172   1.411       .  A
C1172      C1173   1.410       .  A
C1172      H1183   1.082       .  S
C1173      C1182   1.390       .  A
C1173      C1174   1.384       .  A
C1174      N1180   1.333       .  A
C1174      C1175   1.395       .  A
C1175      C1176   1.392       .  A
C1175      H1184   1.083   1_554  S
C1176      C1179   1.368       .  A
N1177      C1178   1.360       .  A
N1177      H1187   1.045       .  S
C1178      C1179   1.391       .  A
C1179      H1185   1.083       .  S
N1180      C1181   1.353       .  A
N1180      H1188   1.045   1_554  S
C1181      C1182   1.400       .  A
C1182      H1186   1.082       .  S
C1189      N1195   1.332       .  A
C1189      C1194   1.384       .  A
C1189      C1190   1.393       .  A
C1190      C1191   1.389       .  A
C1190      H1201   1.083       .  S
C1191      C1200   1.365       .  A
C1191      C1192   1.383       .  A
C1192      N1198   1.350       .  A
C1192      C1193   1.414       .  A
C1193      C1194   1.413       .  A
C1193      H1202   1.082       .  S
C1194      C1197   1.393       .  A
N1195      C1196   1.352       .  A
N1195      H1205   1.045       .  S
C1196      C1197   1.403       .  A
C1197      H1203   1.082       .  S
N1198      C1199   1.361       .  A
N1198      H1206   1.045       .  S
C1199      C1200   1.388       .  A
C1200      H1204   1.083       .  S
C1207      N1213   1.341       .  A
C1207      C1212   1.385       .  A
C1207      C1208   1.396       .  A
C1208      C1209   1.397       .  A
C1208      H1219   1.083       .  S
C1209      C1218   1.366       .  A
C1209      C1210   1.384       .  A
C1210      N1216   1.353       .  A
C1210      C1211   1.411       .  A
C1211      C1212   1.412       .  A
C1211      H1220   1.082       .  S
C1212      C1215   1.385       .  A
N1213      C1214   1.353       .  A
N1213      H1223   1.045       .  S
C1214      C1215   1.401       .  A
C1215      H1221   1.082       .  S
N1216      C1217   1.360       .  A
N1216      H1224   1.044       .  S
C1217      C1218   1.394       .  A
C1218      H1222   1.083       .  S
C1225      N1231   1.350       .  A
C1225      C1230   1.384       .  A
C1225      C1226   1.407       .  A
C1226      C1227   1.408       .  A
C1226      H1237   1.082       .  S
C1227      C1236   1.381       .  A
C1227      C1228   1.385       .  A
C1228      N1234   1.340       .  A
C1228      C1229   1.397       .  A
C1229      C1230   1.397       .  A
C1229      H1238   1.083       .  S
C1230      C1233   1.366       .  A
N1231      C1232   1.357       .  A
N1231      H1241   1.044       .  S
C1232      C1233   1.395       .  A
C1233      H1239   1.083       .  S
N1234      C1235   1.354       .  A
N1234      H1242   1.045       .  S
C1235      C1236   1.398       .  A
C1236      H1240   1.082       .  S
C1243      N1249   1.345       .  A
C1243      C1248   1.384       .  A
C1243      C1244   1.409       .  A
C1244      C1245   1.407       .  A
C1244      H1255   1.082       .  S
C1245      C1254   1.388       .  A
C1245      C1246   1.385       .  A
C1246      N1252   1.332       .  A
C1246      C1247   1.395       .  A
C1247      C1248   1.391       .  A
C1247      H1256   1.083       .  S
C1248      C1251   1.369       .  A
N1249      C1250   1.358       .  A
N1249      H1259   1.045       .  S
C1250      C1251   1.389       .  A
C1251      H1257   1.083       .  S
N1252      C1253   1.352       .  A
N1252      H1260   1.045       .  S
C1253      C1254   1.399       .  A
C1254      H1258   1.082       .  S
C1261      N1267   1.346       .  A
C1261      C1266   1.384       .  A
C1261      C1262   1.408       .  A
C1262      C1263   1.407       .  A
C1262      H1273   1.082       .  S
C1263      C1272   1.387       .  A
C1263      C1264   1.384       .  A
C1264      N1270   1.332       .  A
C1264      C1265   1.395       .  A
C1265      C1266   1.392       .  A
C1265      H1274   1.083       .  S
C1266      C1269   1.367       .  A
N1267      C1268   1.357       .  A
N1267      H1277   1.044       .  S
C1268      C1269   1.391       .  A
C1269      H1275   1.083       .  S
N1270      C1271   1.354       .  A
N1270      H1278   1.045       .  S
C1271      C1272   1.398       .  A
C1272      H1276   1.082       .  S
C1279      N1285   1.333       .  A
C1279      C1284   1.384       .  A
C1279      C1280   1.394       .  A
C1280      C1281   1.392       .  A
C1280      H1291   1.083       .  S
C1281      C1290   1.368       .  A
C1281      C1282   1.384       .  A
C1282      N1288   1.349   1_655  A
C1282      C1283   1.412       .  A
C1283      C1284   1.410       .  A
C1283      H1292   1.082       .  S
C1284      C1287   1.390       .  A
N1285      C1286   1.353       .  A
N1285      H1295   1.045       .  S
C1286      C1287   1.400       .  A
C1287      H1293   1.082       .  S
N1288      C1289   1.360       .  A
N1288      H1296   1.045       .  S
C1289      C1290   1.390   1_455  A
C1290      H1294   1.083       .  S
C1297      N1303   1.351       .  A
C1297      C1302   1.384       .  A
C1297      C1298   1.408       .  A
C1298      C1299   1.410       .  A
C1298      H1309   1.082       .  S
C1299      C1308   1.383       .  A
C1299      C1300   1.385       .  A
C1300      N1306   1.339       .  A
C1300      C1301   1.395       .  A
C1301      C1302   1.396       .  A
C1301      H1310   1.083       .  S
C1302      C1305   1.364       .  A
N1303      C1304   1.358       .  A
N1303      H1313   1.044       .  S
C1304      C1305   1.393       .  A
C1305      H1311   1.083       .  S
N1306      C1307   1.353       .  A
N1306      H1314   1.045       .  S
C1307      C1308   1.399       .  A
C1308      H1312   1.082       .  S
C1315      N1321   1.331       .  A
C1315      C1320   1.384       .  A
C1315      C1316   1.393       .  A
C1316      C1317   1.390       .  A
C1316      H1327   1.083       .  S
C1317      C1326   1.366       .  A
C1317      C1318   1.384       .  A
C1318      N1324   1.348       .  A
C1318      C1319   1.411       .  A
C1319      C1320   1.409       .  A
C1319      H1328   1.082       .  S
C1320      C1323   1.389       .  A
N1321      C1322   1.352       .  A
N1321      H1331   1.045       .  S
C1322      C1323   1.400       .  A
C1323      H1329   1.082       .  S
N1324      C1325   1.359       .  A
N1324      H1332   1.044       .  S
C1325      C1326   1.390       .  A
C1326      H1330   1.083       .  S
C1333      N1339   1.354       .  A
C1333      C1338   1.384       .  A
C1333      C1334   1.412       .  A
C1334      C1335   1.413   1_565  A
C1334      H1345   1.082       .  S
C1335      C1344   1.386       .  A
C1335      C1336   1.385       .  A
C1336      N1342   1.338       .  A
C1336      C1337   1.393   1_545  A
C1337      C1338   1.394       .  A
C1337      H1346   1.083   1_565  S
C1338      C1341   1.363       .  A
N1339      C1340   1.360       .  A
N1339      H1349   1.044       .  S
C1340      C1341   1.392       .  A
C1341      H1347   1.083       .  S
N1342      C1343   1.351       .  A
N1342      H1350   1.045       .  S
C1343      C1344   1.402       .  A
C1344      H1348   1.082       .  S
C1351      N1357   1.334       .  A
C1351      C1356   1.384   1_455  A
C1351      C1352   1.396       .  A
C1352      C1353   1.394   1_455  A
C1352      H1363   1.083       .  S
C1353      C1362   1.369       .  A
C1353      C1354   1.384       .  A
C1354      N1360   1.349       .  A
C1354      C1355   1.412       .  A
C1355      C1356   1.411       .  A
C1355      H1364   1.082       .  S
C1356      C1359   1.390       .  A
N1357      C1358   1.353       .  A
N1357      H1367   1.045       .  S
C1358      C1359   1.400   1_455  A
C1359      H1365   1.082       .  S
N1360      C1361   1.360       .  A
N1360      H1368   1.044       .  S
C1361      C1362   1.392       .  A
C1362      H1366   1.083   1_655  S
C1369      N1375   1.348       .  A
C1369      C1374   1.384       .  A
C1369      C1370   1.409       .  A
C1370      C1371   1.409       .  A
C1370      H1381   1.082       .  S
C1371      C1380   1.387       .  A
C1371      C1372   1.384       .  A
C1372      N1378   1.335       .  A
C1372      C1373   1.396       .  A
C1373      C1374   1.393       .  A
C1373      H1382   1.083       .  S
C1374      C1377   1.366       .  A
N1375      C1376   1.358       .  A
N1375      H1385   1.044       .  S
C1376      C1377   1.391       .  A
C1377      H1383   1.083       .  S
N1378      C1379   1.354       .  A
N1378      H1386   1.045       .  S
C1379      C1380   1.399       .  A
C1380      H1384   1.082       .  S
C1387      N1393   1.347       .  A
C1387      C1392   1.384       .  A
C1387      C1388   1.411       .  A
C1388      C1389   1.410       .  A
C1388      H1399   1.082       .  S
C1389      C1398   1.389       .  A
C1389      C1390   1.385       .  A
C1390      N1396   1.332       .  A
C1390      C1391   1.392       .  A
C1391      C1392   1.389       .  A
C1391      H1400   1.083       .  S
C1392      C1395   1.364       .  A
N1393      C1394   1.360       .  A
N1393      H1403   1.045       .  S
C1394      C1395   1.388       .  A
C1395      H1401   1.083       .  S
N1396      C1397   1.351       .  A
N1396      H1404   1.045       .  S
C1397      C1398   1.400       .  A
C1398      H1402   1.082       .  S
C1405      N1411   1.334       .  A
C1405      C1410   1.384       .  A
C1405      C1406   1.397       .  A
C1406      C1407   1.394       .  A
C1406      H1417   1.083       .  S
C1407      C1416   1.371       .  A
C1407      C1408   1.384       .  A
C1408      N1414   1.349       .  A
C1408      C1409   1.411       .  A
C1409      C1410   1.409       .  A
C1409      H1418   1.082       .  S
C1410      C1413   1.389       .  A
N1411      C1412   1.354       .  A
N1411      H1421   1.045       .  S
C1412      C1413   1.399       .  A
C1413      H1419   1.082       .  S
N1414      C1415   1.360       .  A
N1414      H1422   1.044       .  S
C1415      C1416   1.392       .  A
C1416      H1420   1.083       .  S
C1423      N1429   1.331       .  A
C1423      C1428   1.384       .  A
C1423      C1424   1.394       .  A
C1424      C1425   1.390       .  A
C1424      H1435   1.083       .  S
C1425      C1434   1.369       .  A
C1425      C1426   1.384       .  A
C1426      N1432   1.346       .  A
C1426      C1427   1.412       .  A
C1427      C1428   1.409       .  A
C1427      H1436   1.082       .  S
C1428      C1431   1.391       .  A
N1429      C1430   1.352       .  A
N1429      H1439   1.045       .  S
C1430      C1431   1.401       .  A
C1431      H1437   1.082       .  S
N1432      C1433   1.360       .  A
N1432      H1440   1.045       .  S
C1433      C1434   1.389       .  A
C1434      H1438   1.083       .  S
C1441      N1447   1.348       .  A
C1441      C1446   1.384   1_565  A
C1441      C1442   1.410       .  A
C1442      C1443   1.409   1_565  A
C1442      H1453   1.082       .  S
C1443      C1452   1.388       .  A
C1443      C1444   1.385       .  A
C1444      N1450   1.332       .  A
C1444      C1445   1.393       .  A
C1445      C1446   1.390       .  A
C1445      H1454   1.083       .  S
C1446      C1449   1.365       .  A
N1447      C1448   1.359   1_455  A
N1447      H1457   1.044       .  S
C1448      C1449   1.390   1_665  A
C1449      H1455   1.083   1_455  S
N1450      C1451   1.352       .  A
N1450      H1458   1.045       .  S
C1451      C1452   1.400       .  A
C1452      H1456   1.082   1_545  S
C1459      N1465   1.334       .  A
C1459      C1464   1.384       .  A
C1459      C1460   1.397       .  A
C1460      C1461   1.394       .  A
C1460      H1471   1.083       .  S
C1461      C1470   1.370       .  A
C1461      C1462   1.384       .  A
C1462      N1468   1.346       .  A
C1462      C1463   1.410       .  A
C1463      C1464   1.409       .  A
C1463      H1472   1.082       .  S
C1464      C1467   1.389       .  A
N1465      C1466   1.354       .  A
N1465      H1475   1.045       .  S
C1466      C1467   1.400       .  A
C1467      H1473   1.082       .  S
N1468      C1469   1.358       .  A
N1468      H1476   1.045       .  S
C1469      C1470   1.392       .  A
C1470      H1474   1.083       .  S
C1477      N1483   1.347   1_565  A
C1477      C1482   1.383       .  A
C1477      C1478   1.412       .  A
C1478      C1479   1.410       .  A
C1478      H1489   1.082       .  S
C1479      C1488   1.392       .  A
C1479      C1480   1.384       .  A
C1480      N1486   1.333       .  A
C1480      C1481   1.396       .  A
C1481      C1482   1.392       .  A
C1481      H1490   1.083       .  S
C1482      C1485   1.371   1_565  A
N1483      C1484   1.360       .  A
N1483      H1493   1.045       .  S
C1484      C1485   1.390       .  A
C1485      H1491   1.083       .  S
N1486      C1487   1.354       .  A
N1486      H1494   1.045       .  S
C1487      C1488   1.401       .  A
C1488      H1492   1.082       .  S
C1495      N1501   1.343       .  A
C1495      C1500   1.385       .  A
C1495      C1496   1.398       .  A
C1496      C1497   1.399       .  A
C1496      H1507   1.083       .  S
C1497      C1506   1.367       .  A
C1497      C1498   1.384       .  A
C1498      N1504   1.354       .  A
C1498      C1499   1.411       .  A
C1499      C1500   1.413       .  A
C1499      H1508   1.082       .  S
C1500      C1503   1.385       .  A
N1501      C1502   1.354       .  A
N1501      H1511   1.045       .  S
C1502      C1503   1.401       .  A
C1503      H1509   1.082       .  S
N1504      C1505   1.359       .  A
N1504      H1512   1.044       .  S
C1505      C1506   1.395       .  A
C1506      H1510   1.083       .  S
C1513      N1519   1.352   1_655  A
C1513      C1518   1.384       .  A
C1513      C1514   1.408       .  A
C1514      C1515   1.410       .  A
C1514      H1525   1.082   1_655  S
C1515      C1524   1.382       .  A
C1515      C1516   1.385       .  A
C1516      N1522   1.339       .  A
C1516      C1517   1.395       .  A
C1517      C1518   1.396       .  A
C1517      H1526   1.083       .  S
C1518      C1521   1.364       .  A
N1519      C1520   1.358   1_455  A
N1519      H1529   1.044       .  S
C1520      C1521   1.393       .  A
C1521      H1527   1.083       .  S
N1522      C1523   1.352       .  A
N1522      H1530   1.045       .  S
C1523      C1524   1.399       .  A
C1524      H1528   1.082   1_655  S
C1531      N1537   1.345       .  A
C1531      C1536   1.384       .  A
C1531      C1532   1.409       .  A
C1532      C1533   1.407       .  A
C1532      H1543   1.082       .  S
C1533      C1542   1.388       .  A
C1533      C1534   1.384       .  A
C1534      N1540   1.334       .  A
C1534      C1535   1.398       .  A
C1535      C1536   1.394       .  A
C1535      H1544   1.083       .  S
C1536      C1539   1.373       .  A
N1537      C1538   1.358       .  A
N1537      H1547   1.045       .  S
C1538      C1539   1.392       .  A
C1539      H1545   1.083       .  S
N1540      C1541   1.354       .  A
N1540      H1548   1.045       .  S
C1541      C1542   1.398       .  A
C1542      H1546   1.082       .  S
C1549      N1555   1.347       .  A
C1549      C1554   1.384       .  A
C1549      C1550   1.410       .  A
C1550      C1551   1.408       .  A
C1550      H1561   1.082       .  S
C1551      C1560   1.387       .  A
C1551      C1552   1.384       .  A
C1552      N1558   1.336       .  A
C1552      C1553   1.398       .  A
C1553      C1554   1.395       .  A
C1553      H1562   1.083       .  S
C1554      C1557   1.371       .  A
N1555      C1556   1.359       .  A
N1555      H1565   1.045       .  S
C1556      C1557   1.392       .  A
C1557      H1563   1.083       .  S
N1558      C1559   1.354       .  A
N1558      H1566   1.045       .  S
C1559      C1560   1.398       .  A
C1560      H1564   1.082       .  S
C1567      N1573   1.352       .  A
C1567      C1572   1.384       .  A
C1567      C1568   1.409       .  A
C1568      C1569   1.410       .  A
C1568      H1579   1.082       .  S
C1569      C1578   1.383       .  A
C1569      C1570   1.385       .  A
C1570      N1576   1.338       .  A
C1570      C1571   1.394       .  A
C1571      C1572   1.395       .  A
C1571      H1580   1.083       .  S
C1572      C1575   1.364       .  A
N1573      C1574   1.359       .  A
N1573      H1583   1.044       .  S
C1574      C1575   1.393       .  A
C1575      H1581   1.083       .  S
N1576      C1577   1.352       .  A
N1576      H1584   1.045       .  S
C1577      C1578   1.400       .  A
C1578      H1582   1.082       .  S
C1585      N1591   1.337       .  A
C1585      C1590   1.385       .  A
C1585      C1586   1.393       .  A
C1586      C1587   1.394       .  A
C1586      H1597   1.083       .  S
C1587      C1596   1.362       .  A
C1587      C1588   1.384       .  A
C1588      N1594   1.352       .  A
C1588      C1589   1.408       .  A
C1589      C1590   1.409       .  A
C1589      H1598   1.082       .  S
C1590      C1593   1.382       .  A
N1591      C1592   1.351       .  A
N1591      H1601   1.045       .  S
C1592      C1593   1.399       .  A
C1593      H1599   1.082       .  S
N1594      C1595   1.358       .  A
N1594      H1602   1.044       .  S
C1595      C1596   1.393       .  A
C1596      H1600   1.083       .  S
C1603      N1609   1.336       .  A
C1603      C1608   1.385       .  A
C1603      C1604   1.391       .  A
C1604      C1605   1.392       .  A
C1604      H1615   1.083   1_554  S
C1605      C1614   1.359       .  A
C1605      C1606   1.384       .  A
C1606      N1612   1.352       .  A
C1606      C1607   1.410       .  A
C1607      C1608   1.411       .  A
C1607      H1616   1.082       .  S
C1608      C1611   1.383       .  A
N1609      C1610   1.350       .  A
N1609      H1619   1.045       .  S
C1610      C1611   1.401       .  A
C1611      H1617   1.082       .  S
N1612      C1613   1.359       .  A
N1612      H1620   1.044       .  S
C1613      C1614   1.391       .  A
C1614      H1618   1.083   1_554  S
C1621      N1627   1.332   1_455  A
C1621      C1626   1.385       .  A
C1621      C1622   1.394       .  A
C1622      C1623   1.391       .  A
C1622      H1633   1.083       .  S
C1623      C1632   1.367       .  A
C1623      C1624   1.384       .  A
C1624      N1630   1.346       .  A
C1624      C1625   1.409       .  A
C1625      C1626   1.408       .  A
C1625      H1634   1.082       .  S
C1626      C1629   1.387   1_455  A
N1627      C1628   1.352       .  A
N1627      H1637   1.045       .  S
C1628      C1629   1.399       .  A
C1629      H1635   1.082       .  S
N1630      C1631   1.358       .  A
N1630      H1638   1.045       .  S
C1631      C1632   1.390       .  A
C1632      H1636   1.083       .  S
C1639      N1645   1.340       .  A
C1639      C1644   1.385       .  A
C1639      C1640   1.397       .  A
C1640      C1641   1.397       .  A
C1640      H1651   1.083       .  S
C1641      C1650   1.366       .  A
C1641      C1642   1.384       .  A
C1642      N1648   1.352       .  A
C1642      C1643   1.409       .  A
C1643      C1644   1.410       .  A
C1643      H1652   1.082       .  S
C1644      C1647   1.384       .  A
N1645      C1646   1.353       .  A
N1645      H1655   1.045       .  S
C1646      C1647   1.400       .  A
C1647      H1653   1.082       .  S
N1648      C1649   1.358       .  A
N1648      H1656   1.044       .  S
C1649      C1650   1.394       .  A
C1650      H1654   1.083       .  S
C1657      N1663   1.335       .  A
C1657      C1662   1.384       .  A
C1657      C1658   1.396       .  A
C1658      C1659   1.393       .  A
C1658      H1669   1.083       .  S
C1659      C1668   1.370       .  A
C1659      C1660   1.384       .  A
C1660      N1666   1.349       .  A
C1660      C1661   1.412       .  A
C1661      C1662   1.411       .  A
C1661      H1670   1.082       .  S
C1662      C1665   1.391       .  A
N1663      C1664   1.353       .  A
N1663      H1673   1.045       .  S
C1664      C1665   1.401       .  A
C1665      H1671   1.082       .  S
N1666      C1667   1.360       .  A
N1666      H1674   1.045       .  S
C1667      C1668   1.391       .  A
C1668      H1672   1.083       .  S
C1675      N1681   1.351       .  A
C1675      C1680   1.384       .  A
C1675      C1676   1.409       .  A
C1676      C1677   1.410       .  A
C1676      H1687   1.082       .  S
C1677      C1686   1.384       .  A
C1677      C1678   1.385       .  A
C1678      N1684   1.338       .  A
C1678      C1679   1.395       .  A
C1679      C1680   1.395       .  A
C1679      H1688   1.083       .  S
C1680      C1683   1.366       .  A
N1681      C1682   1.358       .  A
N1681      H1691   1.044       .  S
C1682      C1683   1.392       .  A
C1683      H1689   1.083       .  S
N1684      C1685   1.352       .  A
N1684      H1692   1.045       .  S
C1685      C1686   1.400       .  A
C1686      H1690   1.082       .  S
C1693      N1699   1.335       .  A
C1693      C1698   1.384       .  A
C1693      C1694   1.397       .  A
C1694      C1695   1.395       .  A
C1694      H1705   1.083       .  S
C1695      C1704   1.371       .  A
C1695      C1696   1.384       .  A
C1696      N1702   1.348       .  A
C1696      C1697   1.410       .  A
C1697      C1698   1.409       .  A
C1697      H1706   1.082       .  S
C1698      C1701   1.389       .  A
N1699      C1700   1.354       .  A
N1699      H1709   1.045       .  S
C1700      C1701   1.399       .  A
C1701      H1707   1.082       .  S
N1702      C1703   1.359       .  A
N1702      H1710   1.044       .  S
C1703      C1704   1.393       .  A
C1704      H1708   1.083       .  S
C1711      N1717   1.353       .  A
C1711      C1716   1.384       .  A
C1711      C1712   1.411       .  A
C1712      C1713   1.412       .  A
C1712      H1723   1.082       .  S
C1713      C1722   1.384       .  A
C1713      C1714   1.385       .  A
C1714      N1720   1.338       .  A
C1714      C1715   1.393       .  A
C1715      C1716   1.394       .  A
C1715      H1724   1.083       .  S
C1716      C1719   1.362       .  A
N1717      C1718   1.360       .  A
N1717      H1727   1.044       .  S
C1718      C1719   1.391       .  A
C1719      H1725   1.083       .  S
N1720      C1721   1.351       .  A
N1720      H1728   1.045       .  S
C1721      C1722   1.401       .  A
C1722      H1726   1.082       .  S
C1729      N1735   1.337       .  A
C1729      C1734   1.384       .  A
C1729      C1730   1.398       .  A
C1730      C1731   1.396       .  A
C1730      H1741   1.083       .  S
C1731      C1740   1.372       .  A
C1731      C1732   1.383       .  A
C1732      N1738   1.351       .  A
C1732      C1733   1.413       .  A
C1733      C1734   1.412       .  A
C1733      H1742   1.082       .  S
C1734      C1737   1.391       .  A
N1735      C1736   1.354       .  A
N1735      H1745   1.045       .  S
C1736      C1737   1.401       .  A
C1737      H1743   1.082       .  S
N1738      C1739   1.361       .  A
N1738      H1746   1.044       .  S
C1739      C1740   1.393       .  A
C1740      H1744   1.083       .  S
C1747      N1753   1.336       .  A
C1747      C1752   1.384       .  A
C1747      C1748   1.396       .  A
C1748      C1749   1.394       .  A
C1748      H1759   1.083       .  S
C1749      C1758   1.369   1_565  A
C1749      C1750   1.384   1_565  A
C1750      N1756   1.348       .  A
C1750      C1751   1.410   1_545  A
C1751      C1752   1.409       .  A
C1751      H1760   1.082       .  S
C1752      C1755   1.387       .  A
N1753      C1754   1.353       .  A
N1753      H1763   1.045       .  S
C1754      C1755   1.399       .  A
C1755      H1761   1.082       .  S
N1756      C1757   1.359       .  A
N1756      H1764   1.045       .  S
C1757      C1758   1.391       .  A
C1758      H1762   1.083       .  S
C1765      N1771   1.349       .  A
C1765      C1770   1.384       .  A
C1765      C1766   1.411       .  A
C1766      C1767   1.410       .  A
C1766      H1777   1.082       .  S
C1767      C1776   1.389       .  A
C1767      C1768   1.384       .  A
C1768      N1774   1.334       .  A
C1768      C1769   1.396       .  A
C1769      C1770   1.393       .  A
C1769      H1778   1.083       .  S
C1770      C1773   1.369   1_655  A
N1771      C1772   1.359   1_655  A
N1771      H1781   1.044       .  S
C1772      C1773   1.391       .  A
C1773      H1779   1.083       .  S
N1774      C1775   1.353       .  A
N1774      H1782   1.045       .  S
C1775      C1776   1.400       .  A
C1776      H1780   1.082       .  S
C1783      N1789   1.336       .  A
C1783      C1788   1.384       .  A
C1783      C1784   1.397       .  A
C1784      C1785   1.395       .  A
C1784      H1795   1.083       .  S
C1785      C1794   1.371       .  A
C1785      C1786   1.383   1_545  A
C1786      N1792   1.349       .  A
C1786      C1787   1.412       .  A
C1787      C1788   1.411   1_565  A
C1787      H1796   1.082       .  S
C1788      C1791   1.391       .  A
N1789      C1790   1.354       .  A
N1789      H1799   1.045       .  S
C1790      C1791   1.401       .  A
C1791      H1797   1.082   1_545  S
N1792      C1793   1.361       .  A
N1792      H1800   1.045       .  S
C1793      C1794   1.392   1_565  A
C1794      H1798   1.083       .  S
C1801      N1807   1.338       .  A
C1801      C1806   1.384       .  A
C1801      C1802   1.399       .  A
C1802      C1803   1.397       .  A
C1802      H1813   1.083       .  S
C1803      C1812   1.373       .  A
C1803      C1804   1.384       .  A
C1804      N1810   1.347       .  A
C1804      C1805   1.409       .  A
C1805      C1806   1.407       .  A
C1805      H1814   1.082       .  S
C1806      C1809   1.386       .  A
N1807      C1808   1.354       .  A
N1807      H1817   1.045       .  S
C1808      C1809   1.398       .  A
C1809      H1815   1.082       .  S
N1810      C1811   1.358       .  A
N1810      H1818   1.044       .  S
C1811      C1812   1.394       .  A
C1812      H1816   1.083       .  S
C1819      N1825   1.352       .  A
C1819      C1824   1.384       .  A
C1819      C1820   1.410       .  A
C1820      C1821   1.411       .  A
C1820      H1831   1.082       .  S
C1821      C1830   1.385       .  A
C1821      C1822   1.385       .  A
C1822      N1828   1.338       .  A
C1822      C1823   1.396       .  A
C1823      C1824   1.396       .  A
C1823      H1832   1.083       .  S
C1824      C1827   1.367       .  A
N1825      C1826   1.359       .  A
N1825      H1835   1.044       .  S
C1826      C1827   1.393       .  A
C1827      H1833   1.083       .  S
N1828      C1829   1.353       .  A
N1828      H1836   1.045       .  S
C1829      C1830   1.400       .  A
C1830      H1834   1.082       .  S
