geometry optimzed in LAMMPS
_audit_creation_date              2020-11-30 
_audit_creation_method            'lammps2cif' 
_symmetry_space_group_name_H-M    'P1' 
_symmetry_Int_Tables_number       1 
_symmetry_cell_setting            triclinic 
loop_ 
_symmetry_equiv_pos_as_xyz 
  x,y,z 
_cell_length_a                    50.514709573949034 
_cell_length_b                    50.80432305925787 
_cell_length_c                    25.227437272141827 
_cell_angle_alpha                 89.92455564335233 
_cell_angle_beta                  90.33004730822145 
_cell_angle_gamma                 119.55345727823732 
loop_ 
_atom_site_label 
_atom_site_type_symbol 
_atom_site_fract_x 
_atom_site_fract_y 
_atom_site_fract_z 
_atom_site_charge 
Fe1        Fe  0.16224800  0.29395846  0.99951134     1.65780
Fe2        Fe  0.13283166  0.34186563  0.99149774     1.73250
Fe3        Fe  0.20980340  0.37066030  0.99857488     1.54410
O4          O  0.22226621  0.35454358  0.06275396    -0.80670
O5          O  0.15360380  0.37742978  0.93832276    -0.78970
O6          O  0.19534757  0.30421554  0.05772811    -0.83170
O7          O  0.19358681  0.30199683  0.94068078    -0.78030
O8          O  0.19829779  0.39486230  0.05029278    -0.79800
O9          O  0.11403777  0.31262155  0.92828760    -0.82550
C10         C  0.21821274  0.32528160  0.92755003     0.98220
C11         C  0.21640953  0.32848794  0.07795898     1.05660
O12         O  0.16829388  0.33547546  0.99644063    -1.11530
O13         O  0.10665289  0.30732407  0.04404160    -0.73960
O14         O  0.13032837  0.28072083  0.05850733    -0.77450
O15         O  0.22691469  0.35136687  0.94679313    -0.78140
C16         C  0.10885142  0.28622980  0.06699439     0.97120
O17         O  0.12802313  0.27782471  0.94212198    -0.76090
O18         O  0.14756046  0.37186380  0.05408884    -0.81290
C19         C  0.18018376  0.39403412  0.92010881     0.99750
C20         C  0.17381384  0.39239322  0.06844916     1.05660
O21         O  0.20289995  0.39167695  0.93480592    -0.76930
C22         C  0.11210385  0.28728915  0.91801774     1.03960
Fe23       Fe  0.33680232  0.20526565  0.00978109     1.65780
Fe24       Fe  0.36771065  0.15885266  0.00501894     1.73250
Fe25       Fe  0.29086613  0.12977727  0.99290047     1.54420
O26         O  0.27185580  0.14702194  0.04471309    -0.80670
O27         O  0.35389132  0.13022020  0.94049135    -0.78970
O28         O  0.30738022  0.19208460  0.07313438    -0.83170
O29         O  0.30152852  0.19715376  0.95772143    -0.78030
O30         O  0.29653977  0.10615444  0.05465101    -0.79800
O31         O  0.39195576  0.19489263  0.95370103    -0.82550
C32         C  0.28365532  0.17549504  0.92783871     0.98220
C33         C  0.28068077  0.16956870  0.07552824     1.05660
O34         O  0.33197060  0.16456763  0.00251578    -1.11530
O35         O  0.38743882  0.18659834  0.07005595    -0.73960
O36         O  0.37245736  0.22082273  0.06287631    -0.77450
O37         O  0.28125013  0.14950867  0.92994800    -0.78140
C38         C  0.38917985  0.21143238  0.08332321     0.97120
O39         O  0.36714115  0.22128092  0.94768622    -0.76090
O40         O  0.34657079  0.12223560  0.05634188    -0.81290
C41         C  0.32816540  0.11026584  0.92310720     0.99750
C42         C  0.31944393  0.10454511  0.07170150     1.05660
O43         O  0.30330120  0.10742672  0.93946071    -0.76930
C44         C  0.38846113  0.21617419  0.93433109     1.03960
C45         C  0.49860293  0.03041492  0.25173159     0.03300
C46         C  0.47042150  0.00238952  0.24943375     0.03300
C47         C  0.47068493  0.47422650  0.25050962     0.03300
C48         C  0.49881538  0.47381006  0.24935174     0.03300
C49         C  0.02690954  0.00172303  0.25087704     0.03300
C50         C  0.02671458  0.02981290  0.25398567     0.03300
C51         C  0.31580817  0.00907657  0.20090229     0.04140
C52         C  0.34380865  0.00951751  0.20031744    -0.12010
C53         C  0.34885873  0.49021530  0.23325061     0.01640
C54         C  0.32534287  0.46975809  0.26613674    -0.10540
C55         C  0.29709046  0.46889462  0.26665217     0.04130
C56         C  0.29237829  0.48854723  0.23374464    -0.09960
H57         H  0.36221949  0.02599728  0.17610707     0.09730
H58         H  0.32934878  0.45521343  0.29252989     0.07250
H59         H  0.27096821  0.48860804  0.23511604     0.07100
C60         C  0.17589811  0.48403716  0.20591148     0.04140
C61         C  0.14787361  0.48364302  0.20820238    -0.12010
C62         C  0.14427895  0.50392271  0.24103159     0.01640
C63         C  0.16900460  0.02451048  0.27199913    -0.10540
C64         C  0.19697993  0.02484613  0.27034713     0.04130
C65         C  0.20045883  0.00480938  0.23691267    -0.09960
H66         H  0.12877697  0.46738128  0.18463411     0.09730
H67         H  0.16641275  0.04011158  0.29785068     0.07250
H68         H  0.22205114  0.00511835  0.23557190     0.07100
C69         C  0.17379424  0.19285429  0.28967579     0.04140
C70         C  0.19641567  0.19447298  0.25529343    -0.12010
C71         C  0.19220554  0.16861210  0.22663907     0.01640
C72         C  0.16792168  0.14066336  0.24393983    -0.10540
C73         C  0.14421321  0.13928939  0.27390427     0.04130
C74         C  0.14714690  0.16534741  0.29695983    -0.09960
H75         H  0.21711152  0.21583786  0.25293813     0.09730
H76         H  0.16587117  0.11928322  0.23350218     0.07250
H77         H  0.12865999  0.16423488  0.32030685     0.07100
C78         C  0.48009099  0.17826174  0.27655347     0.04140
C79         C  0.49860922  0.20148114  0.24144451    -0.12010
C80         C  0.01889988  0.19807844  0.20795802     0.01640
C81         C  0.01990340  0.17079909  0.20935041    -0.10540
C82         C  0.50105878  0.14731745  0.24383141     0.04130
C83         C  0.48155857  0.15141845  0.27765999    -0.09960
H84         H  0.49685361  0.22187261  0.23965141     0.09730
H85         H  0.03541590  0.16787389  0.18372910     0.07250
H86         H  0.46693801  0.13333594  0.30431614     0.07100
C87         C  0.32366776  0.31318021  0.30224575     0.04140
C88         C  0.30009182  0.30955849  0.26746289    -0.12010
C89         C  0.30312354  0.33405920  0.23641363     0.01640
C90         C  0.32937959  0.36241200  0.24287599    -0.10540
C91         C  0.35336582  0.36553168  0.27502665     0.04130
C92         C  0.35059945  0.34103330  0.30394536    -0.09960
H93         H  0.27984287  0.28763604  0.26374707     0.09730
H94         H  0.33208322  0.38172875  0.22025269     0.07250
H95         H  0.36994557  0.34350156  0.32680547     0.07100
C96         C  0.02728739  0.33224435  0.26538326     0.04140
C97         C  0.50567664  0.30689254  0.23706949    -0.12010
C98         C  0.48264251  0.30824064  0.20791750     0.01640
C99         C  0.48162483  0.33543770  0.20686146    -0.10540
C100        C  0.50320293  0.36086252  0.23522446     0.04520
C101        C  0.02609593  0.35918055  0.26398928    -0.09960
H102        H  0.50608045  0.28578941  0.23951038     0.09730
H103        H  0.46370214  0.33661359  0.18502648     0.07250
H104        H  0.04220665  0.37847675  0.28721923     0.07100
Fe105      Fe  0.33790715  0.12983809  0.49489774     1.65780
Fe106      Fe  0.29280722  0.16274560  0.49295245     1.73250
Fe107      Fe  0.36997673  0.20674210  0.50391140     1.54410
O108        O  0.39256436  0.19301448  0.55671789    -0.80670
O109        O  0.30471367  0.19452632  0.43410882    -0.78970
O110        O  0.36765247  0.14271909  0.55811614    -0.83170
O111        O  0.37350730  0.14923199  0.44142528    -0.78030
O112        O  0.35237814  0.21833709  0.56781675    -0.79800
O113        O  0.27672165  0.12969510  0.43523674    -0.82550
C114        C  0.39113615  0.17562606  0.42343359     0.98220
C115        C  0.38856994  0.16797503  0.57468184     1.05660
O116        O  0.33357228  0.16640862  0.49706950    -1.11530
O117        O  0.27629906  0.13048096  0.55126640    -0.73960
O118        O  0.30348658  0.10695528  0.54924658    -0.77450
O119        O  0.39093954  0.19908915  0.44035159    -0.78140
C120        C  0.28210843  0.11033497  0.56818607     0.97120
O121        O  0.30825255  0.11089418  0.43153746    -0.76090
O122        O  0.30261642  0.19555576  0.55041881    -0.81290
C123        C  0.32844744  0.21999835  0.42863785     0.99750
C124        C  0.32588325  0.21434152  0.57658946     1.05660
O125        O  0.35321812  0.22715298  0.45286966    -0.76930
C126        C  0.28487008  0.11185426  0.41584454     1.03960
Fe127      Fe  0.20558132  0.33792744  0.50088082     1.65780
Fe128      Fe  0.15918851  0.36915071  0.50329274     1.73250
Fe129      Fe  0.12842305  0.29220606  0.49739774     1.54410
O130        O  0.14507542  0.27852470  0.43525545    -0.80670
O131        O  0.12384370  0.34983086  0.55742098    -0.78970
O132        O  0.19520821  0.30416035  0.44639373    -0.83170
O133        O  0.19588476  0.30763283  0.56251811    -0.78030
O134        O  0.10544507  0.30419371  0.44270693    -0.79800
O135        O  0.18923900  0.38858186  0.56627008    -0.82550
C136        C  0.17209037  0.28271853  0.57271787     0.98220
C137        C  0.17160099  0.28349977  0.42405753     1.05660
O138        O  0.16437646  0.33308644  0.50068240    -1.11530
O139        O  0.19337279  0.39301150  0.44845062    -0.73960
O140        O  0.21912928  0.36817414  0.43875712    -0.77450
O141        O  0.14654963  0.27456633  0.55067297    -0.78140
C142        C  0.21345036  0.38901914  0.42545584     0.97120
O143        O  0.22281432  0.37271684  0.55508100    -0.76090
O144        O  0.12900061  0.35456443  0.44054014    -0.81290
C145        C  0.10670688  0.32361841  0.57641554     0.99750
C146        C  0.10889551  0.32884338  0.42372171     1.05660
O147        O  0.10756288  0.30047917  0.56005135    -0.76930
C148        C  0.21426667  0.38958968  0.57722325     1.03960
C149        C  0.50123304  0.47053071  0.75397770     0.03300
C150        C  0.02919331  0.99885142  0.75703522     0.03300
C151        C  0.02863015  0.02687313  0.75866581     0.03300
C152        C  0.50002868  0.02644972  0.75805670     0.03300
C153        C  0.47210563  0.49813419  0.75532673     0.03300
C154        C  0.47267528  0.47021669  0.75367338     0.03300
C155        C  0.18358262  0.49110485  0.79773878     0.04140
C156        C  0.20649346  0.01191324  0.76448121    -0.12010
C157        C  0.20059898  0.03043494  0.73065303     0.01640
C158        C  0.17176210  0.02823638  0.73132227    -0.10540
C159        C  0.14936835  0.50859109  0.76638829     0.04130
C160        C  0.15548993  0.49038445  0.80003006    -0.09960
H161        H  0.22829088  0.01266698  0.76321035     0.09730
H162        H  0.16653955  0.04154667  0.70397691     0.07250
H163        H  0.13765320  0.47413717  0.82546291     0.07100
C164        C  0.32734941  0.02106248  0.78004365     0.04140
C165        C  0.30243125  0.50047981  0.74902721    -0.12010
C166        C  0.30525303  0.47975077  0.71593026     0.01640
C167        C  0.33273636  0.47916547  0.71529577    -0.10540
C168        C  0.35756065  0.49982753  0.74541076     0.04130
C169        C  0.35502137  0.02099918  0.77690045    -0.09960
H170        H  0.28105976  0.50059473  0.75058451     0.09730
H171        H  0.33484594  0.46266308  0.69113872     0.07250
H172        H  0.37448848  0.03701778  0.80006489     0.07100
C173        C  0.47397290  0.16851114  0.72943615     0.04140
C174        C  0.49677138  0.19467712  0.75447694    -0.12010
C175        C  0.01848834  0.19301025  0.78756917     0.01640
C176        C  0.01727323  0.16491343  0.79426290    -0.10540
C177        C  0.49537461  0.13917661  0.76739016     0.04130
C178        C  0.47349102  0.14094258  0.73588723    -0.09960
H179        H  0.49787516  0.21623977  0.74747618     0.09730
H180        H  0.03401902  0.16324762  0.81893422     0.07250
H181        H  0.45687368  0.12110258  0.71439258     0.07100
C182        C  0.17189740  0.19395838  0.71868603     0.04140
C183        C  0.19696075  0.19834489  0.74979313    -0.12010
C184        C  0.19440103  0.17605985  0.78558082     0.01640
C185        C  0.16704779  0.14839738  0.78789939    -0.10540
C186        C  0.14203660  0.14353699  0.75683583     0.04130
C187        C  0.14423616  0.16660296  0.72355215    -0.09960
H188        H  0.21839118  0.21920068  0.74663560     0.09730
H189        H  0.16517513  0.13065358  0.81416257     0.07250
H190        H  0.12446186  0.16297988  0.70077163     0.07100
C191        C  0.01420740  0.31942368  0.71704444     0.04140
C192        C  0.49508253  0.29718020  0.75340964    -0.12010
C193        C  0.47487712  0.30191382  0.78503379     0.01640
C194        C  0.47455839  0.32936356  0.78081276    -0.10540
C195        C  0.49377753  0.35172871  0.74517300     0.04130
C196        C  0.01266973  0.34622438  0.71228731    -0.09960
H197        H  0.49650987  0.27672481  0.75822194     0.09730
H198        H  0.45972982  0.33358163  0.80601799     0.07250
H199        H  0.02768177  0.36373723  0.68508885     0.07100
C200        C  0.32755135  0.30235267  0.72391880     0.04140
C201        C  0.30351285  0.29958556  0.75551077    -0.12010
C202        C  0.30734841  0.32397852  0.78705370     0.01640
C203        C  0.33523598  0.35103959  0.78699926    -0.10540
C204        C  0.35929213  0.35391076  0.75565388     0.04130
C205        C  0.35540646  0.32953207  0.72420519    -0.09960
H206        H  0.28194135  0.27866159  0.75534965     0.09730
H207        H  0.33815136  0.36995041  0.81111147     0.07250
H208        H  0.37393818  0.33181437  0.69956545     0.07100
C209        C  0.49743577  0.11108820  0.76662248    -0.04330
C210        C  0.48425563  0.08944950  0.80692332    -0.01450
C211        C  0.48576257  0.06242795  0.80498103     0.03540
C212        C  0.49916220  0.05593976  0.76090669    -0.04330
C213        C  0.01195493  0.07804216  0.72008977    -0.01430
C214        C  0.01188175  0.10567030  0.72399360     0.03540
C215        C  0.46934776  0.09524846  0.85080657     0.38190
C216        C  0.02378387  0.07257179  0.67181993     0.38180
C217        C  0.02684097  0.12878626  0.68372527     0.36600
C218        C  0.47576272  0.04305747  0.85110528     0.36610
N219        N  0.03906074  0.14712481  0.65169569    -0.38210
N220        N  0.46895222  0.02965827  0.89044914    -0.38220
N221        N  0.03258211  0.06996043  0.63102150    -0.37660
N222        N  0.45743172  0.09989647  0.88569121    -0.37660
C223        C  0.11357527  0.11380565  0.75819020    -0.04330
C224        C  0.10739319  0.09243861  0.71791143    -0.01450
C225        C  0.07935572  0.06515225  0.71661063     0.03540
C226        C  0.05841115  0.05698941  0.75929817    -0.04330
C227        C  0.06616601  0.07810060  0.80176785    -0.01430
C228        C  0.09267462  0.10679589  0.79955180     0.03540
C229        C  0.13020382  0.09841605  0.67785479     0.38190
C230        C  0.04851965  0.07062672  0.84986434     0.38180
C231        C  0.09834407  0.12935775  0.83991243     0.36600
C232        C  0.07148804  0.04755116  0.66827057     0.36610
N233        N  0.10238192  0.14727199  0.87191532    -0.38210
N234        N  0.06611106  0.03571917  0.62734601    -0.38220
N235        N  0.03672822  0.06639205  0.89062528    -0.37660
N236        N  0.14853700  0.10282591  0.64644269    -0.37660
C237        C  0.44309310  0.44007191  0.75372846    -0.04330
C238        C  0.42223735  0.43079167  0.71028012    -0.01450
C239        C  0.39508553  0.40261184  0.71106461     0.03540
C240        C  0.38833787  0.38306201  0.75454237    -0.04330
C241        C  0.40868811  0.39171906  0.79762824    -0.01430
C242        C  0.43565008  0.42005516  0.79766406     0.03540
C243        C  0.42844584  0.44886561  0.66288345     0.38190
C244        C  0.40167051  0.37132402  0.84232554     0.38180
C245        C  0.45403109  0.42912850  0.84545427     0.36600
C246        C  0.37372528  0.39363541  0.66693082     0.36610
N247        N  0.46678381  0.43564263  0.88570015    -0.38210
N248        N  0.35669339  0.38641934  0.63183400    -0.38220
N249        N  0.39601881  0.35502304  0.87787415    -0.37660
N250        N  0.43169145  0.46099669  0.62263644    -0.37660
C251        C  0.44199535  0.49791213  0.75237140    -0.04330
C252        C  0.41963033  0.48421275  0.79264013    -0.01450
C253        C  0.39129173  0.48304095  0.78786109     0.03540
C254        C  0.38603613  0.49838083  0.74646740    -0.04330
C255        C  0.40811595  0.01284597  0.70718749    -0.01430
C256        C  0.43523440  0.01134500  0.70856514     0.03540
C257        C  0.42550325  0.47299451  0.84141536     0.38190
C258        C  0.40282988  0.02923477  0.66505846     0.38180
C259        C  0.45438494  0.02139174  0.66214739     0.36600
C260        C  0.36719844  0.46564456  0.82547196     0.36610
N261        N  0.46755034  0.02817025  0.62257680    -0.38210
N262        N  0.34792148  0.45129336  0.85494236    -0.38220
N263        N  0.39888157  0.04257074  0.63165240    -0.37660
N264        N  0.42824963  0.46465555  0.88269695    -0.37660
C265        C  0.05957042  0.99957836  0.76027581    -0.04330
C266        C  0.07853439  0.01183457  0.80583752    -0.01450
C267        C  0.10792556  0.01512043  0.80745905     0.03540
C268        C  0.11849448  0.50521209  0.76473608    -0.04330
C269        C  0.09953117  0.49170048  0.72048027    -0.01430
C270        C  0.07050164  0.48924680  0.71771031     0.03540
C271        C  0.06748728  0.01915349  0.85326408     0.38190
C272        C  0.11004740  0.48026683  0.67736905     0.38180
C273        C  0.05363714  0.47794278  0.66873946     0.36600
C274        C  0.12754298  0.02896943  0.85320100     0.36610
N275        N  0.04280552  0.46983663  0.62723016    -0.38210
N276        N  0.14321666  0.04000555  0.88959651    -0.38220
N277        N  0.11838789  0.47117576  0.64300687    -0.37660
N278        N  0.05941283  0.02375979  0.89325099    -0.37660
C279        C  0.50131230  0.44062868  0.75027403    -0.04330
C280        C  0.98845972  0.42139178  0.70528636    -0.01450
C281        C  0.98496471  0.39202379  0.70443231     0.03540
C282        C  0.49657196  0.38227528  0.74612203    -0.04330
C283        C  0.51207333  0.40218472  0.78821623    -0.01430
C284        C  0.51301335  0.43032710  0.79194964     0.03540
C285        C  0.98084673  0.43211284  0.65758586     0.38190
C286        C  0.52835391  0.39429709  0.82696707     0.38180
C287        C  0.52423521  0.44677381  0.84115558     0.36600
C288        C  0.96972182  0.37185004  0.66012577     0.36610
N289        N  0.53242411  0.45718209  0.88285450    -0.38210
N290        N  0.95755076  0.35574228  0.62484180    -0.38220
N291        N  0.54221300  0.38893034  0.85746259    -0.37660
N292        N  0.97599600  0.43992476  0.61737334    -0.37660
C293        C  0.17438325  0.21767698  0.68048999    -0.04330
C294        C  0.16439614  0.20966016  0.62736116    -0.01450
C295        C  0.16381450  0.23103349  0.59252737     0.03540
C296        C  0.17408359  0.26101550  0.60966232    -0.04330
C297        C  0.18589984  0.26969652  0.66141407    -0.01430
C298        C  0.18600409  0.24817451  0.69680594     0.03540
C299        C  0.15561347  0.17966275  0.60736561     0.38190
C300        C  0.19696542  0.30054066  0.67893724     0.38180
C301        C  0.19796171  0.25761127  0.75001397     0.36600
C302        C  0.15313320  0.22215660  0.53836251     0.36610
N303        N  0.20808153  0.26503929  0.79216564    -0.38210
N304        N  0.14448427  0.21493766  0.49536162    -0.38220
N305        N  0.20583681  0.32516366  0.69293446    -0.37660
N306        N  0.14847066  0.15588671  0.59057907    -0.37660
C307        C  0.03850050  0.31699861  0.68748831    -0.04330
C308        C  0.03159157  0.29331016  0.65125734    -0.01450
C309        C  0.05469291  0.29389037  0.61908958     0.03540
C310        C  0.08413543  0.31985059  0.61836062    -0.04330
C311        C  0.09119684  0.34286725  0.65645328    -0.01430
C312        C  0.06898930  0.34033924  0.69286974     0.03540
C313        C  0.00054087  0.26917825  0.64421115     0.38190
C314        C  0.12101582  0.36956815  0.65719942     0.38180
C315        C  0.07714292  0.36135875  0.73681090     0.36600
C316        C  0.04754149  0.26804773  0.58556730     0.36610
N317        N  0.08220310  0.37707617  0.77308382    -0.38210
N318        N  0.04204802  0.24737524  0.55908119    -0.38220
N319        N  0.14475457  0.39098154  0.65534464    -0.37660
N320        N  0.47602107  0.24972146  0.63678065    -0.37660
C321        C  0.23612740  0.41336037  0.61350945    -0.04330
C322        C  0.26387069  0.43628184  0.59258683    -0.01450
C323        C  0.28507336  0.45942775  0.62555973     0.03540
C324        C  0.27999486  0.45861217  0.68065249    -0.04330
C325        C  0.25235493  0.43561840  0.70188644    -0.01430
C326        C  0.23032062  0.41314525  0.66825181     0.03540
C327        C  0.27153390  0.43533937  0.53748504     0.38190
C328        C  0.24727490  0.43432115  0.75857043     0.38180
C329        C  0.20295639  0.38852979  0.69067883     0.36600
C330        C  0.31224237  0.48419428  0.60251698     0.36610
N331        N  0.18136950  0.36876303  0.70914716    -0.38210
N332        N  0.33374614  0.50391674  0.58377119    -0.38220
N333        N  0.24356157  0.43355269  0.80388283    -0.37660
N334        N  0.27837974  0.43443129  0.49412056    -0.37660
C335        C  0.45238187  0.17003365  0.69116367    -0.04330
C336        C  0.42221096  0.16094243  0.70624241    -0.01450
C337        C  0.40107305  0.15999769  0.66822022     0.03540
C338        C  0.41013022  0.16816855  0.61506692    -0.04330
C339        C  0.43953670  0.17469164  0.59947891    -0.01430
C340        C  0.46077686  0.17630031  0.63753734     0.03540
C341        C  0.41270595  0.15106336  0.76020845     0.38190
C342        C  0.44674176  0.17578538  0.54376568     0.38180
C343        C  0.49071856  0.18234135  0.62104688     0.36600
C344        C  0.36962334  0.14880919  0.68290434     0.36610
N345        N  0.01449574  0.18677831  0.60807833    -0.38210
N346        N  0.34439387  0.13946843  0.69429602    -0.38220
N347        N  0.45264924  0.17527207  0.49971082    -0.37660
N348        N  0.40540019  0.14285038  0.80322976    -0.37660
C349        C  0.22380634  0.05126318  0.69228998    -0.04330
C350        C  0.23679797  0.04025118  0.65492581    -0.01450
C351        C  0.25690778  0.05971822  0.61595850     0.03540
C352        C  0.26297749  0.09008132  0.61206221    -0.04330
C353        C  0.24999095  0.10092601  0.65004324    -0.01430
C354        C  0.23140592  0.08197189  0.69070905     0.03540
C355        C  0.22867414  0.00854504  0.65498869     0.38190
C356        C  0.25514258  0.13157433  0.64719705     0.38180
C357        C  0.22010514  0.09427342  0.73114136     0.36600
C358        C  0.27037643  0.04779893  0.57907664     0.36610
N359        N  0.21105478  0.10410027  0.76313540    -0.38210
N360        N  0.28106662  0.03813663  0.54993530    -0.38220
N361        N  0.25885098  0.15582641  0.64332696    -0.37660
N362        N  0.22232993  0.98332000  0.65499893    -0.37660
C363        C  0.32235109  0.23350908  0.61761825    -0.04330
C364        C  0.30600812  0.24889286  0.60600784    -0.01450
C365        C  0.30688425  0.27072444  0.64167489     0.03540
C366        C  0.32371940  0.27707006  0.68933983    -0.04330
C367        C  0.33824152  0.26031754  0.70264942    -0.01430
C368        C  0.33727093  0.23843571  0.66715578     0.03540
C369        C  0.28925064  0.24331437  0.55652565     0.38190
C370        C  0.35429680  0.26572781  0.75287963     0.38180
C371        C  0.35052447  0.22002278  0.68254573     0.36600
C372        C  0.29148394  0.28759541  0.62836004     0.36610
N373        N  0.36059803  0.20488329  0.69506060    -0.38210
N374        N  0.27924799  0.30110001  0.61781335    -0.38220
N375        N  0.36708729  0.27006373  0.79293685    -0.37660
N376        N  0.27585323  0.23892261  0.51711767    -0.37660
C377        C  0.04837762  0.32943604  0.30306429    -0.04330
C378        C  0.08014281  0.34584265  0.29534488    -0.01450
C379        C  0.09993038  0.34461325  0.33376617     0.03540
C380        C  0.08809633  0.32774175  0.38082928    -0.04330
C381        C  0.05625708  0.31127051  0.38812659    -0.01430
C382        C  0.03650214  0.31185863  0.34918785     0.03540
C383        C  0.09243435  0.36423708  0.24820573     0.38190
C384        C  0.04361025  0.29525606  0.43712167     0.38180
C385        C  0.00384667  0.29569957  0.35775667     0.36600
C386        C  0.13244544  0.36030216  0.32448980     0.36610
N387        N  0.47775486  0.28312307  0.36361917    -0.38210
N388        N  0.15839187  0.37260119  0.31711576    -0.38220
N389        N  0.03281985  0.28243461  0.47593181    -0.37660
N390        N  0.10225825  0.37906141  0.21077751    -0.37660
C391        C  0.32657465  0.24326514  0.39572500    -0.04330
C392        C  0.31486817  0.23688368  0.34347046    -0.01450
C393        C  0.31454274  0.25978618  0.31232755     0.03540
C394        C  0.32185402  0.28793390  0.33529620    -0.04330
C395        C  0.33056951  0.29311393  0.38940741    -0.01430
C396        C  0.33495597  0.27182164  0.41819458     0.03540
C397        C  0.30308558  0.20690773  0.32125559     0.38190
C398        C  0.33469761  0.32023176  0.41602142     0.38180
C399        C  0.34786932  0.27945335  0.47127009     0.36600
C400        C  0.30872011  0.25497268  0.25594280     0.36610
N401        N  0.35864124  0.28593007  0.51317630    -0.38210
N402        N  0.30460527  0.25157038  0.21075030    -0.38220
N403        N  0.33791882  0.34174059  0.43749273    -0.37660
N404        N  0.29264213  0.18299048  0.30290828    -0.37660
C405        C  0.45732534  0.18066662  0.31025907    -0.04330
C406        C  0.46654262  0.20091167  0.35348284    -0.01450
C407        C  0.44458685  0.20133266  0.38733949     0.03540
C408        C  0.41351994  0.17907852  0.38185095    -0.04330
C409        C  0.40451430  0.15853188  0.33884161    -0.01430
C410        C  0.42613338  0.16042018  0.30176269     0.03540
C411        C  0.49856969  0.21889076  0.36656580     0.38190
C412        C  0.37329311  0.13452169  0.33425978     0.38180
C413        C  0.41680954  0.14115784  0.25513123     0.36600
C414        C  0.45436185  0.22319112  0.43027443     0.36610
N415        N  0.41082350  0.12649951  0.21718265    -0.38210
N416        N  0.46195858  0.24044952  0.46477459    -0.38220
N417        N  0.34846877  0.11486577  0.33270681    -0.37660
N418        N  0.02402799  0.23244373  0.37824062    -0.37660
C419        C  0.17512986  0.26347653  0.38502083    -0.04330
C420        C  0.19700682  0.25402819  0.39380302    -0.01450
C421        C  0.19816137  0.23262482  0.35981665     0.03540
C422        C  0.17702256  0.21984912  0.31789709    -0.04330
C423        C  0.15632422  0.23033908  0.30729646    -0.01430
C424        C  0.15562059  0.25229434  0.34033945     0.03540
C425        C  0.21770779  0.26523078  0.43884669     0.38190
C426        C  0.13528041  0.21805249  0.26284174     0.38180
C427        C  0.13496099  0.26356191  0.32792777     0.36600
C428        C  0.22041582  0.22289961  0.36925489     0.36610
N429        N  0.11863520  0.27278521  0.31834480    -0.38210
N430        N  0.23829695  0.21531891  0.37658495    -0.38220
N431        N  0.11836643  0.20811378  0.22765347    -0.37660
N432        N  0.23430949  0.27414314  0.47460637    -0.37660
C433        C  0.26421851  0.08893696  0.37729008    -0.04330
C434        C  0.23916056  0.06223761  0.39668176    -0.01450
C435        C  0.21881634  0.04006910  0.36128418     0.03540
C436        C  0.22198148  0.04536420  0.30629720    -0.04330
C437        C  0.24776502  0.07127561  0.28659154    -0.01430
C438        C  0.26879061  0.09319983  0.32206724     0.03540
C439        C  0.23329553  0.05800152  0.45312184     0.38190
C440        C  0.25292034  0.07511675  0.22997121     0.38180
C441        C  0.29436982  0.12039251  0.30140223     0.36600
C442        C  0.19552223  0.01110845  0.38138743     0.36610
N443        N  0.31473258  0.14178964  0.28374969    -0.38210
N444        N  0.17765019  0.98778107  0.39778777    -0.38220
N445        N  0.25750570  0.07796401  0.18489095    -0.37660
N446        N  0.22769131  0.05439446  0.49781712    -0.37660
C447        C  0.27314119  0.44859160  0.30440213    -0.04330
C448        C  0.25841140  0.41693900  0.29736656    -0.01450
C449        C  0.23732595  0.39760945  0.33524981     0.03540
C450        C  0.23156636  0.40967266  0.38150688    -0.04330
C451        C  0.24469281  0.44145569  0.38654400    -0.01430
C452        C  0.26555925  0.46081377  0.34828370     0.03540
C453        C  0.26493818  0.40428683  0.25096555     0.38190
C454        C  0.23755389  0.45446353  0.43171196     0.38180
C455        C  0.28012863  0.49338197  0.35518660     0.36600
C456        C  0.22016051  0.36532315  0.32523358     0.36610
N457        N  0.29172657  0.01934905  0.36065122    -0.38210
N458        N  0.20571745  0.33961351  0.31726237    -0.38220
N459        N  0.23191674  0.46493027  0.46766313    -0.37660
N460        N  0.27025138  0.39431787  0.21393278    -0.37660
C461        C  0.05659499  0.05881904  0.25997926    -0.04330
C462        C  0.07358961  0.06532375  0.30808091    -0.01450
C463        C  0.10219160  0.09171165  0.31305807     0.03540
C464        C  0.11403645  0.11188237  0.27046364    -0.04330
C465        C  0.09712294  0.10628387  0.22327309    -0.01430
C466        C  0.06866455  0.07997949  0.21784041     0.03540
C467        C  0.06119824  0.04647754  0.35443797     0.38190
C468        C  0.10918478  0.12792701  0.17992151     0.38180
C469        C  0.05305162  0.07525901  0.16761513     0.36600
C470        C  0.11946563  0.09833822  0.36215878     0.36610
N471        N  0.04308446  0.07358688  0.12556175    -0.38210
N472        N  0.13320711  0.10370391  0.40134157    -0.38220
N473        N  0.11887963  0.14512672  0.14547079    -0.37660
N474        N  0.05202327  0.03335558  0.39369684    -0.37660
C475        C  0.49890503  0.06057505  0.25014636    -0.04330
C476        C  0.00967395  0.08104017  0.29386995    -0.01450
C477        C  0.01180225  0.10981440  0.29045859     0.03540
C478        C  0.50133767  0.11807284  0.24505686    -0.04330
C479        C  0.48927865  0.09754159  0.20252981    -0.01430
C480        C  0.48914147  0.06965751  0.20405647     0.03540
C481        C  0.01638077  0.07248121  0.34467493     0.38190
C482        C  0.47576639  0.10446450  0.15756112     0.38180
C483        C  0.48110463  0.05207408  0.15571782     0.36600
C484        C  0.02446655  0.13101153  0.33440133     0.36610
N485        N  0.47607157  0.04065923  0.11445457    -0.38210
N486        N  0.03450261  0.14791983  0.36934900    -0.38220
N487        N  0.46429714  0.10905733  0.12165575    -0.37660
N488        N  0.02063237  0.06738439  0.38761875    -0.37660
C489        C  0.11439587  0.00326388  0.24359264    -0.04330
C490        C  0.10296612  0.51127204  0.19909225    -0.01450
C491        C  0.07506567  0.51136326  0.20179279     0.03540
C492        C  0.05703028  0.00175394  0.24835444    -0.04330
C493        C  0.06827127  0.99258292  0.29230867    -0.01430
C494        C  0.09711758  0.99442367  0.29044153     0.03540
C495        C  0.12009386  0.51991715  0.15011712     0.38190
C496        C  0.05113255  0.98159327  0.34074697     0.38180
C497        C  0.10889245  0.98701446  0.33731814     0.36600
C498        C  0.06503897  0.52039780  0.15488121     0.36610
N499        N  0.11775652  0.98129365  0.37553789    -0.38210
N500        N  0.05846974  0.52705533  0.11508981    -0.38220
N501        N  0.03969425  0.97307809  0.38152313    -0.37660
N502        N  0.13307173  0.52679312  0.11038997    -0.37660
C503        C  0.49908661  0.44406829  0.24558484    -0.04330
C504        C  0.00801691  0.43576059  0.19784183    -0.01450
C505        C  0.00883113  0.40841017  0.19426417     0.03540
C506        C  0.50091088  0.38891557  0.23804687    -0.04330
C507        C  0.49149762  0.39647868  0.28525853    -0.01430
C508        C  0.49032604  0.42363500  0.28905507     0.03540
C509        C  0.01346110  0.45332120  0.14995255     0.38190
C510        C  0.48287457  0.37602905  0.33025755     0.38180
C511        C  0.48079372  0.43008849  0.33897456     0.36600
C512        C  0.01774681  0.40013013  0.14514195     0.36610
N513        N  0.47373421  0.43349745  0.38083779    -0.38210
N514        N  0.02469453  0.39339292  0.10598727    -0.38220
N515        N  0.47612400  0.35977132  0.36609436    -0.37660
N516        N  0.01611833  0.46489408  0.10928600    -0.37660
C517        C  0.44095517  0.44515706  0.25740870    -0.04330
C518        C  0.42924031  0.42182398  0.21848113    -0.01450
C519        C  0.40200761  0.39483592  0.22758360     0.03540
C520        C  0.38354226  0.39264690  0.27050978    -0.04330
C521        C  0.39450884  0.41533442  0.30943420    -0.01430
C522        C  0.42384154  0.44059689  0.30448880     0.03540
C523        C  0.44287770  0.42489040  0.16711753     0.38190
C524        C  0.37598352  0.41217105  0.35531523     0.38180
C525        C  0.43711376  0.46017497  0.35004151     0.36600
C526        C  0.39358478  0.36859148  0.19398574     0.36610
N527        N  0.44756910  0.47424852  0.38817470    -0.38210
N528        N  0.38736013  0.34751631  0.16808332    -0.38220
N529        N  0.36122404  0.40973591  0.39188990    -0.37660
N530        N  0.45049182  0.42455370  0.12407355    -0.37660
C531        C  0.37990164  0.49375255  0.23698482    -0.04330
C532        C  0.39181384  0.48482030  0.19485573    -0.01450
C533        C  0.42156889  0.48891974  0.19809741     0.03540
C534        C  0.43995575  0.00168478  0.24417646    -0.04330
C535        C  0.42782068  0.01142796  0.28578220    -0.01430
C536        C  0.39812700  0.00747659  0.28195852     0.03540
C537        C  0.37318767  0.47111407  0.14802992     0.38190
C538        C  0.44430667  0.02425870  0.33448956     0.38180
C539        C  0.38616611  0.01774091  0.32463351     0.36600
C540        C  0.43337847  0.48124650  0.15211776     0.36610
N541        N  0.37659622  0.02585189  0.35859119    -0.38210
N542        N  0.44211608  0.47600336  0.11345579    -0.38220
N543        N  0.45465649  0.03388698  0.37572323    -0.37660
N544        N  0.35831393  0.46022242  0.11072751    -0.37660
C545        C  0.32498749  0.04261003  0.81700823    -0.04330
C546        C  0.31719711  0.06414443  0.79810466    -0.01450
C547        C  0.31700847  0.08571117  0.83308764     0.03540
C548        C  0.32700006  0.08736500  0.88592176    -0.04330
C549        C  0.33477455  0.06592255  0.90485380    -0.01430
C550        C  0.33267334  0.04298455  0.87112738     0.03540
C551        C  0.31112954  0.06523988  0.74219504     0.38190
C552        C  0.34460580  0.06715098  0.95950150     0.38180
C553        C  0.33802078  0.01952391  0.89275223     0.36600
C554        C  0.30681023  0.10627504  0.81461550     0.36610
N555        N  0.34228796  0.00100559  0.91085792    -0.38210
N556        N  0.29826999  0.12235476  0.79975742    -0.38220
N557        N  0.35268196  0.06808694  0.00283129    -0.37660
N558        N  0.30679516  0.06616186  0.69735101    -0.37660
C559        C  0.31279425  0.03290895  0.17172149    -0.04330
C560        C  0.32980091  0.06325447  0.18873206    -0.01450
C561        C  0.33040136  0.08672266  0.15785838     0.03540
C562        C  0.31435681  0.07991122  0.10924458    -0.04330
C563        C  0.29546595  0.04926150  0.09435531    -0.01430
C564        C  0.29458795  0.02581663  0.12575265     0.03540
C565        C  0.34711437  0.06976800  0.23763766     0.38190
C566        C  0.27818987  0.04181080  0.04528197     0.38180
C567        C  0.27601128  0.99446231  0.10974947     0.36600
C568        C  0.34694755  0.11779038  0.17624148     0.36610
N569        N  0.26120156  0.46935558  0.09750384    -0.38210
N570        N  0.35981783  0.14268839  0.19051493    -0.38220
N571        N  0.26439836  0.03580812  0.00611824    -0.37660
N572        N  0.36071670  0.07316692  0.27649183    -0.37660
C573        C  0.26309166  0.18000993  0.89182323    -0.04330
C574        C  0.23601132  0.17762023  0.91200257    -0.01450
C575        C  0.21458341  0.17858644  0.87742921     0.03540
C576        C  0.21977804  0.18138924  0.82227499    -0.04330
C577        C  0.24837658  0.18725209  0.80290163    -0.01430
C578        C  0.26974264  0.18593289  0.83751203     0.03540
C579        C  0.22951193  0.17330630  0.96821036     0.38190
C580        C  0.25620084  0.19562752  0.74802669     0.38180
C581        C  0.29848415  0.19061487  0.81730589     0.36600
C582        C  0.18757375  0.17769438  0.89895044     0.36610
N583        N  0.32144500  0.19444451  0.80097676    -0.38210
N584        N  0.16634427  0.17735991  0.91668701    -0.38220
N585        N  0.26250052  0.20353848  0.70465892    -0.37660
N586        N  0.22336861  0.16979392  0.01269545    -0.37660
C587        C  0.41132695  0.23711957  0.89631499    -0.04330
C588        C  0.43428823  0.26564515  0.91407995    -0.01450
C589        C  0.45622373  0.28595663  0.87840103     0.03540
C590        C  0.45434491  0.27866931  0.82388246    -0.04330
C591        C  0.43146510  0.24983453  0.80637468    -0.01430
C592        C  0.41040080  0.22893312  0.84273568     0.03540
C593        C  0.43519838  0.27429731  0.96919502     0.38190
C594        C  0.42881939  0.24200812  0.75072545     0.38180
C595        C  0.38727263  0.19925589  0.82496293     0.36600
C596        C  0.48116822  0.31394862  0.89862551     0.36610
N597        N  0.36876543  0.17549017  0.81112639    -0.38210
N598        N  0.00091003  0.33585689  0.91645047    -0.38220
N599        N  0.42654294  0.23571322  0.70627434    -0.37660
N600        N  0.43589822  0.28151842  0.01289660    -0.37660
C601        C  0.21285299  0.16990198  0.18117400    -0.04330
C602        C  0.23641430  0.19750590  0.15969505    -0.01450
C603        C  0.25885089  0.19742088  0.12624293     0.03540
C604        C  0.25807497  0.16989368  0.11330515    -0.04330
C605        C  0.23208535  0.14246890  0.12815528    -0.01430
C606        C  0.20820789  0.14303511  0.15531658     0.03540
C607        C  0.23481107  0.22519827  0.16259146     0.38190
C608        C  0.22809969  0.11322070  0.11227174     0.38180
C609        C  0.17775266  0.11854908  0.14342798     0.36600
C610        C  0.28084172  0.22546821  0.10097430     0.36610
N611        N  0.15364208  0.09901459  0.13312997    -0.38210
N612        N  0.29817911  0.24781159  0.08070158    -0.38220
N613        N  0.22436272  0.08982025  0.09901500    -0.37660
N614        N  0.23375794  0.24744352  0.16376954    -0.37660
C615        C  0.45880993  0.28073102  0.18020258    -0.04330
C616        C  0.42788248  0.26802553  0.19468780    -0.01450
C617        C  0.40505476  0.24375335  0.16523946     0.03540
C618        C  0.41296353  0.23172778  0.12157067    -0.04330
C619        C  0.44402722  0.24273141  0.10988299    -0.01430
C620        C  0.46685445  0.26728441  0.13884229     0.03540
C621        C  0.41951831  0.27980661  0.24012576     0.38190
C622        C  0.45254315  0.23028145  0.06559933     0.38180
C623        C  0.49853914  0.27967934  0.12412576     0.36600
C624        C  0.37333614  0.23099933  0.17992779     0.36610
N625        N  0.02379060  0.28952334  0.11238276    -0.38210
N626        N  0.34803410  0.22068216  0.19168697    -0.38220
N627        N  0.45940605  0.22048294  0.03021552    -0.37660
N628        N  0.41284268  0.28916542  0.27639546    -0.37660
C629        C  0.08910041  0.26695852  0.87819008    -0.04330
C630        C  0.09671955  0.25121319  0.84069443    -0.01450
C631        C  0.07397592  0.22844407  0.80864006     0.03540
C632        C  0.04304504  0.22049173  0.81478357    -0.04330
C633        C  0.03565240  0.23761878  0.84982413    -0.01430
C634        C  0.05859580  0.26095452  0.88088158     0.03540
C635        C  0.12813981  0.25853728  0.83513672     0.38190
C636        C  0.00418621  0.23018112  0.85647954     0.38180
C637        C  0.05021521  0.27723946  0.91833666     0.36600
C638        C  0.08255760  0.21323378  0.76925020     0.36610
N639        N  0.04344435  0.29016617  0.94814929    -0.38210
N640        N  0.08950968  0.20113962  0.73799403    -0.38220
N641        N  0.47913076  0.22434134  0.86183216    -0.37660
N642        N  0.15331652  0.26460971  0.83139421    -0.37660
C643        C  0.03920480  0.22274110  0.17087180    -0.04330
C644        C  0.03843446  0.21661410  0.11609362    -0.01450
C645        C  0.06124247  0.23751445  0.08235896     0.03540
C646        C  0.08410020  0.26551404  0.10241921    -0.04330
C647        C  0.08331767  0.27303277  0.15586653    -0.01430
C648        C  0.06083787  0.25177931  0.19002317     0.03540
C649        C  0.01330403  0.18952440  0.09357105     0.38190
C650        C  0.10619807  0.30225823  0.17605202     0.38180
C651        C  0.06008173  0.26009402  0.24457823     0.36600
C652        C  0.06146052  0.22979227  0.02703668     0.36610
N653        N  0.05939757  0.26737157  0.28771142    -0.38210
N654        N  0.06144891  0.22310036  0.98321495    -0.38220
N655        N  0.12446017  0.32552154  0.19235101    -0.37660
N656        N  0.49319095  0.16849311  0.07422151    -0.37660
C657        C  0.18514741  0.41863749  0.88284850    -0.04330
C658        C  0.16642935  0.41239374  0.83759362    -0.01450
C659        C  0.16740399  0.43641683  0.80816098     0.03540
C660        C  0.18673054  0.46665068  0.82404933    -0.04330
C661        C  0.20753988  0.47301521  0.86590698    -0.01430
C662        C  0.20678449  0.44905918  0.89541244     0.03540
C663        C  0.14647363  0.38134112  0.82129447     0.38190
C664        C  0.22883596  0.50419618  0.87966235     0.38180
C665        C  0.22705859  0.45592163  0.94057297     0.36600
C666        C  0.14837195  0.43070956  0.76164388     0.36610
N667        N  0.24326725  0.46147090  0.97656263    -0.38210
N668        N  0.13374631  0.42837094  0.72463195    -0.38220
N669        N  0.24582102  0.02920623  0.88979522    -0.37660
N670        N  0.13077405  0.35646456  0.80851277    -0.37660
C671        C  0.28223580  0.32159536  0.82054737    -0.04330
C672        C  0.26612086  0.33656255  0.80534276    -0.01450
C673        C  0.24414580  0.33663287  0.83947614     0.03540
C674        C  0.23842602  0.32203706  0.88908880    -0.04330
C675        C  0.25392739  0.30634426  0.90365213    -0.01430
C676        C  0.27578451  0.30611165  0.86939402     0.03540
C677        C  0.27249126  0.35217940  0.75484516     0.38190
C678        C  0.24849593  0.29172173  0.95502286     0.38180
C679        C  0.29264952  0.29110713  0.88538521     0.36600
C680        C  0.22708951  0.35141349  0.82359113     0.36610
N681        N  0.30620195  0.27923799  0.89810662    -0.38210
N682        N  0.21310852  0.36290714  0.81143032    -0.38220
N683        N  0.24427410  0.28019529  0.99609633    -0.37660
N684        N  0.27773217  0.36466048  0.71457969    -0.37660
C685        C  0.17904475  0.46233741  0.17071231    -0.04330
C686        C  0.17467547  0.46325249  0.11566797    -0.01450
C687        C  0.17159849  0.43953226  0.08304514     0.03540
C688        C  0.17597845  0.41626693  0.10429613    -0.04330
C689        C  0.18355855  0.41691104  0.15837049    -0.01430
C690        C  0.18446588  0.43960694  0.19189222     0.03540
C691        C  0.17546108  0.48961610  0.09191024     0.38190
C692        C  0.18978804  0.39395887  0.17951201     0.38180
C693        C  0.19081824  0.43956013  0.24799842     0.36600
C694        C  0.16346717  0.43898044  0.02760650     0.36610
N695        N  0.19612121  0.44002545  0.29277800    -0.38210
N696        N  0.15643213  0.43862696  0.98377320    -0.38220
N697        N  0.19485580  0.37567219  0.19624752    -0.37660
N698        N  0.17710627  0.51087623  0.07195137    -0.37660
C699        C  0.28001166  0.33017289  0.19489658    -0.04330
C700        C  0.24866884  0.31677539  0.20734008    -0.01450
C701        C  0.22733236  0.31474932  0.16864014     0.03540
C702        C  0.23733007  0.32710706  0.11779118    -0.04330
C703        C  0.26840675  0.34010381  0.10493754    -0.01430
C704        C  0.28946321  0.34099693  0.14261203     0.03540
C705        C  0.23857189  0.30636586  0.26066875     0.38190
C706        C  0.27892766  0.35281692  0.05246825     0.38180
C707        C  0.32083999  0.35313619  0.12635431     0.36600
C708        C  0.19534013  0.30108988  0.18178341     0.36610
N709        N  0.34558633  0.36338111  0.11147862    -0.38210
N710        N  0.16980506  0.29010359  0.19231800    -0.38220
N711        N  0.28746553  0.36316840  0.01094621    -0.37660
N712        N  0.23117693  0.29824636  0.30361651    -0.37660
Fe713      Fe  0.16224789  0.79395826  0.99951094     1.65780
Fe714      Fe  0.13283176  0.84186563  0.99149792     1.73250
Fe715      Fe  0.20980352  0.87066009  0.99857492     1.54410
O716        O  0.22226638  0.85454315  0.06275365    -0.80670
O717        O  0.15360389  0.87742966  0.93832276    -0.78970
O718        O  0.19534743  0.80421513  0.05772748    -0.83170
O719        O  0.19358668  0.80199662  0.94068029    -0.78030
O720        O  0.19829808  0.89486210  0.05029324    -0.79800
O721        O  0.11403759  0.81262147  0.92828794    -0.82550
C722        C  0.21821263  0.82528137  0.92754954     0.98220
C723        C  0.21640954  0.82848741  0.07795834     1.05660
O724        O  0.16829392  0.83547533  0.99644058    -1.11530
O725        O  0.10665309  0.80732421  0.04404207    -0.73960
O726        O  0.13032828  0.78072060  0.05850697    -0.77450
O727        O  0.22691463  0.85136664  0.94679273    -0.78140
C728        C  0.10885152  0.78622979  0.06699453     0.97120
O729        O  0.12802305  0.77782466  0.94212170    -0.76090
O730        O  0.14756075  0.87186391  0.05408884    -0.81290
C731        C  0.18018389  0.89403407  0.92010901     0.99750
C732        C  0.17381414  0.89239319  0.06844938     1.05660
O733        O  0.20290009  0.89167697  0.93480630    -0.76930
C734        C  0.11210369  0.78728911  0.91801781     1.03960
Fe735      Fe  0.33680268  0.70526634  0.00978096     1.65780
Fe736      Fe  0.36771127  0.65885352  0.00501971     1.73250
Fe737      Fe  0.29086676  0.62977797  0.99290022     1.54420
O738        O  0.27185628  0.64702255  0.04471266    -0.80670
O739        O  0.35389213  0.63022077  0.94049245    -0.78970
O740        O  0.30738054  0.69208526  0.07313416    -0.83170
O741        O  0.30152882  0.69715428  0.95772127    -0.78030
O742        O  0.29654028  0.60615508  0.05465075    -0.79800
O743        O  0.39195626  0.69489336  0.95370146    -0.82550
C744        C  0.28365578  0.67549557  0.92783841     0.98220
C745        C  0.28068112  0.66956929  0.07552781     1.05660
O746        O  0.33197115  0.66456837  0.00251596    -1.11530
O747        O  0.38743943  0.68659954  0.07005644    -0.73960
O748        O  0.37245779  0.72082375  0.06287611    -0.77450
O749        O  0.28125083  0.64950930  0.92994761    -0.78140
C750        C  0.38918043  0.71143364  0.08332320     0.97120
O751        O  0.36714148  0.72128148  0.94768612    -0.76090
O752        O  0.34657138  0.62223656  0.05634299    -0.81290
C753        C  0.32816630  0.61026656  0.92310770     0.99750
C754        C  0.31944439  0.60454585  0.07170184     1.05660
O755        O  0.30330203  0.60742756  0.93946056    -0.76930
C756        C  0.38846151  0.71617479  0.93433122     1.03960
C757        C  0.49860180  0.53041310  0.25173148     0.03300
C758        C  0.47042034  0.50238774  0.24943351     0.03300
C759        C  0.47068616  0.97422831  0.25051068     0.03300
C760        C  0.49881663  0.97381182  0.24935336     0.03300
C761        C  0.02690989  0.50172310  0.25087722     0.03300
C762        C  0.02671499  0.52981300  0.25398585     0.03300
C763        C  0.31580769  0.50907630  0.20090068     0.04140
C764        C  0.34380807  0.50951707  0.20031531    -0.12010
C765        C  0.34885951  0.99021627  0.23325378     0.01640
C766        C  0.32534379  0.96975930  0.26614030    -0.10540
C767        C  0.29709114  0.96889536  0.26665469     0.04130
C768        C  0.29237880  0.98854758  0.23374639    -0.09960
H769        H  0.36221899  0.52599710  0.17610540     0.09730
H770        H  0.32934987  0.95521500  0.29253408     0.07250
H771        H  0.27096858  0.98860812  0.23511723     0.07100
C772        C  0.17589781  0.98403698  0.20591158     0.04140
C773        C  0.14787332  0.98364289  0.20820239    -0.12010
C774        C  0.14427867  0.00392262  0.24103154     0.01640
C775        C  0.16900485  0.52451057  0.27199917    -0.10540
C776        C  0.19698019  0.52484625  0.27034713     0.04130
C777        C  0.20045913  0.50480956  0.23691260    -0.09960
H778        H  0.12877668  0.96738115  0.18463412     0.09730
H779        H  0.16641298  0.54011164  0.29785076     0.07250
H780        H  0.22205145  0.50511856  0.23557180     0.07100
C781        C  0.17379431  0.69285463  0.28967467     0.04140
C782        C  0.19641569  0.69447336  0.25529213    -0.12010
C783        C  0.19220565  0.66861243  0.22663808     0.01640
C784        C  0.16792198  0.64066367  0.24393923    -0.10540
C785        C  0.14421352  0.63928965  0.27390376     0.04130
C786        C  0.14714711  0.66534768  0.29695913    -0.09960
H787        H  0.21711144  0.71583832  0.25293643     0.09730
H788        H  0.16587158  0.61928357  0.23350177     0.07250
H789        H  0.12866023  0.66423508  0.32030629     0.07100
C790        C  0.48008887  0.67825927  0.27654915     0.04140
C791        C  0.49860746  0.70147936  0.24144167    -0.12010
C792        C  0.01890029  0.69807870  0.20795899     0.01640
C793        C  0.01990396  0.67079943  0.20935146    -0.10540
C794        C  0.50105688  0.64731544  0.24382507     0.04130
C795        C  0.48155615  0.65141582  0.27765358    -0.09960
H796        H  0.49685224  0.72187108  0.23965034     0.09730
H797        H  0.03541639  0.66787423  0.18372995     0.07250
H798        H  0.46693542  0.63333292  0.30430892     0.07100
C799        C  0.32367045  0.81318011  0.30224022     0.04140
C800        C  0.30009350  0.80955783  0.26745933    -0.12010
C801        C  0.30312467  0.83405784  0.23640872     0.01640
C802        C  0.32938096  0.86241069  0.24286812    -0.10540
C803        C  0.35336790  0.86553098  0.27501714     0.04130
C804        C  0.35060235  0.84103314  0.30393673    -0.09960
H805        H  0.27984418  0.78763548  0.26374599     0.09730
H806        H  0.33208397  0.88172697  0.22024402     0.07250
H807        H  0.36994898  0.84350195  0.32679588     0.07100
C808        C  0.02728759  0.83224465  0.26538333     0.04140
C809        C  0.50567710  0.80689399  0.23706941    -0.12010
C810        C  0.48264315  0.80824236  0.20791726     0.01640
C811        C  0.48162550  0.83543944  0.20686189    -0.10540
C812        C  0.50320305  0.86086372  0.23522657     0.04520
C813        C  0.02609605  0.85918081  0.26398924    -0.09960
H814        H  0.50608112  0.78579094  0.23950910     0.09730
H815        H  0.46370325  0.83661572  0.18502617     0.07250
H816        H  0.04220670  0.87847702  0.28721925     0.07100
Fe817      Fe  0.33790708  0.62983783  0.49489800     1.65780
Fe818      Fe  0.29280768  0.66274601  0.49295256     1.73250
Fe819      Fe  0.36997744  0.70674203  0.50391074     1.54410
O820        O  0.39256454  0.69301436  0.55671826    -0.80670
O821        O  0.30471428  0.69452721  0.43410969    -0.78970
O822        O  0.36765301  0.64271895  0.55811548    -0.83170
O823        O  0.37350663  0.64923092  0.44142445    -0.78030
O824        O  0.35237911  0.71833797  0.56781537    -0.79800
O825        O  0.27672206  0.62969597  0.43523602    -0.82550
C826        C  0.39113597  0.67562490  0.42343299     0.98220
C827        C  0.38857024  0.66797487  0.57468175     1.05660
O828        O  0.33357264  0.66640867  0.49706942    -1.11530
O829        O  0.27629905  0.63048093  0.55126592    -0.73960
O830        O  0.30348703  0.60695572  0.54924782    -0.77450
O831        O  0.39094017  0.69908830  0.44035153    -0.78140
C832        C  0.28210860  0.61033520  0.56818641     0.97120
O833        O  0.30825181  0.61089361  0.43153877    -0.76090
O834        O  0.30261710  0.69555586  0.55041952    -0.81290
C835        C  0.32844849  0.71999874  0.42863719     0.99750
C836        C  0.32588420  0.71434209  0.57658904     1.05660
O837        O  0.35321937  0.72715293  0.45286793    -0.76930
C838        C  0.28486993  0.61185446  0.41584481     1.03960
Fe839      Fe  0.20558104  0.83792709  0.50088082     1.65780
Fe840      Fe  0.15918832  0.86915046  0.50329319     1.73250
Fe841      Fe  0.12842275  0.79220579  0.49739782     1.54410
O842        O  0.14507511  0.77852439  0.43525552    -0.80670
O843        O  0.12384357  0.84983062  0.55742143    -0.78970
O844        O  0.19520791  0.80416024  0.44639333    -0.83170
O845        O  0.19588446  0.80763231  0.56251781    -0.78030
O846        O  0.10544486  0.80419357  0.44270702    -0.79800
O847        O  0.18923886  0.88858149  0.56627045    -0.82550
C848        C  0.17209002  0.78271810  0.57271778     0.98220
C849        C  0.17160069  0.78349962  0.42405723     1.05660
O850        O  0.16437620  0.83308614  0.50068257    -1.11530
O851        O  0.19337256  0.89301129  0.44845110    -0.73960
O852        O  0.21912910  0.86817400  0.43875747    -0.77450
O853        O  0.14654924  0.77456598  0.55067307    -0.78140
C854        C  0.21345019  0.88901902  0.42545634     0.97120
O855        O  0.22281404  0.87271630  0.55508130    -0.76090
O856        O  0.12900041  0.85456431  0.44054068    -0.81290
C857        C  0.10670668  0.82361815  0.57641580     0.99750
C858        C  0.10889533  0.82884331  0.42372205     1.05660
O859        O  0.10756256  0.80047889  0.56005142    -0.76930
C860        C  0.21426648  0.88958919  0.57722357     1.03960
C861        C  0.50123326  0.97053106  0.75397739     0.03300
C862        C  0.02919311  0.49885123  0.75703510     0.03300
C863        C  0.02862991  0.52687292  0.75866576     0.03300
C864        C  0.50002842  0.52644935  0.75805709     0.03300
C865        C  0.47210587  0.99813457  0.75532649     0.03300
C866        C  0.47267551  0.97021705  0.75367317     0.03300
C867        C  0.18358273  0.99110477  0.79773895     0.04140
C868        C  0.20649338  0.51191342  0.76448120    -0.12010
C869        C  0.20059891  0.53043516  0.73065311     0.01640
C870        C  0.17176200  0.52823656  0.73132232    -0.10540
C871        C  0.14936846  0.00859100  0.76638836     0.04130
C872        C  0.15549005  0.99038441  0.80003024    -0.09960
H873        H  0.22829082  0.51266720  0.76321038     0.09730
H874        H  0.16653944  0.54154685  0.70397700     0.07250
H875        H  0.13765334  0.97413719  0.82546319     0.07100
C876        C  0.32734963  0.52106276  0.78004414     0.04140
C877        C  0.30243112  0.00047945  0.74902670    -0.12010
C878        C  0.30525303  0.97975044  0.71592995     0.01640
C879        C  0.33273644  0.97916528  0.71529556    -0.10540
C880        C  0.35756066  0.99982746  0.74541055     0.04130
C881        C  0.35502151  0.52099932  0.77690074    -0.09960
H882        H  0.28105958  0.00059427  0.75058389     0.09730
H883        H  0.33484613  0.96266292  0.69113862     0.07250
H884        H  0.37448870  0.53701787  0.80006509     0.07100
C885        C  0.47397286  0.66851084  0.72943653     0.04140
C886        C  0.49677138  0.69467683  0.75447716    -0.12010
C887        C  0.01848789  0.69300989  0.78757033     0.01640
C888        C  0.01727285  0.66491310  0.79426398    -0.10540
C889        C  0.49537449  0.63917628  0.76739072     0.04130
C890        C  0.47349091  0.64094226  0.73588776    -0.09960
H891        H  0.49787524  0.71623949  0.74747621     0.09730
H892        H  0.03401876  0.66324733  0.81893507     0.07250
H893        H  0.45687355  0.62110224  0.71439316     0.07100
C894        C  0.17189726  0.69395803  0.71868585     0.04140
C895        C  0.19696069  0.69834458  0.74979275    -0.12010
C896        C  0.19440110  0.67605957  0.78558039     0.01640
C897        C  0.16704788  0.64839706  0.78789907    -0.10540
C898        C  0.14203660  0.64353663  0.75683572     0.04130
C899        C  0.14423605  0.66660259  0.72355212    -0.09960
H900        H  0.21839108  0.71920042  0.74663515     0.09730
H901        H  0.16517529  0.63065329  0.81416222     0.07250
H902        H  0.12446169  0.66297949  0.70077177     0.07100
C903        C  0.01420731  0.81942378  0.71704435     0.04140
C904        C  0.49508255  0.79718046  0.75340923    -0.12010
C905        C  0.47487722  0.80191417  0.78503339     0.01640
C906        C  0.47455857  0.82936395  0.78081232    -0.10540
C907        C  0.49377781  0.85172909  0.74517266     0.04130
C908        C  0.01266975  0.84622453  0.71228729    -0.09960
H909        H  0.49650983  0.77672504  0.75822152     0.09730
H910        H  0.45973001  0.83358207  0.80601751     0.07250
H911        H  0.02768185  0.86373738  0.68508888     0.07100
C912        C  0.32755185  0.80235303  0.72391851     0.04140
C913        C  0.30351320  0.79958575  0.75551029    -0.12010
C914        C  0.30734856  0.82397861  0.78705328     0.01640
C915        C  0.33523606  0.85103977  0.78699906    -0.10540
C916        C  0.35929235  0.85391111  0.75565385     0.04130
C917        C  0.35540688  0.82953250  0.72420513    -0.09960
H918        H  0.28194176  0.77866172  0.75534894     0.09730
H919        H  0.33815130  0.86995052  0.81111129     0.07250
H920        H  0.37393870  0.83181493  0.69956552     0.07100
C921        C  0.49743563  0.61108787  0.76662304    -0.04330
C922        C  0.48425540  0.58944913  0.80692379    -0.01450
C923        C  0.48576228  0.56242754  0.80498144     0.03540
C924        C  0.49916193  0.55593937  0.76090710    -0.04330
C925        C  0.01195465  0.57804202  0.72009029    -0.01430
C926        C  0.01188142  0.60567013  0.72399444     0.03540
C927        C  0.46934754  0.59524809  0.85080705     0.38190
C928        C  0.02378366  0.57257184  0.67182035     0.38180
C929        C  0.02684061  0.62878621  0.68372628     0.36600
C930        C  0.47576234  0.54305701  0.85110561     0.36610
N931        N  0.03906035  0.64712485  0.65169683    -0.38210
N932        N  0.46895177  0.52965776  0.89044942    -0.38220
N933        N  0.03258197  0.56996064  0.63102188    -0.37660
N934        N  0.45743151  0.59989611  0.88569170    -0.37660
C935        C  0.11357525  0.61380530  0.75819021    -0.04330
C936        C  0.10739304  0.59243827  0.71791137    -0.01450
C937        C  0.07935548  0.56515200  0.71661051     0.03540
C938        C  0.05841093  0.55698921  0.75929809    -0.04330
C939        C  0.06616588  0.57810040  0.80176780    -0.01430
C940        C  0.09267458  0.60679562  0.79955179     0.03540
C941        C  0.13020363  0.59841563  0.67785469     0.38190
C942        C  0.04851952  0.57062658  0.84986427     0.38180
C943        C  0.09834410  0.62935751  0.83991239     0.36600
C944        C  0.07148768  0.54755097  0.66827037     0.36610
N945        N  0.10238199  0.64727177  0.87191526    -0.38210
N946        N  0.06611057  0.53571901  0.62734578    -0.38220
N947        N  0.03672809  0.56639198  0.89062521    -0.37660
N948        N  0.14853677  0.60282545  0.64644254    -0.37660
C949        C  0.44309330  0.94007228  0.75372834    -0.04330
C950        C  0.42223751  0.93079205  0.71028008    -0.01450
C951        C  0.39508566  0.90261224  0.71106466     0.03540
C952        C  0.38833801  0.88306243  0.75454244    -0.04330
C953        C  0.40868829  0.89171947  0.79762824    -0.01430
C954        C  0.43565030  0.92005555  0.79766397     0.03540
C955        C  0.42844598  0.94886596  0.66288337     0.38190
C956        C  0.40167071  0.87132445  0.84232556     0.38180
C957        C  0.45403136  0.92912888  0.84545412     0.36600
C958        C  0.37372537  0.89363582  0.66693091     0.36610
N959        N  0.46678413  0.93564300  0.88569996    -0.38210
N960        N  0.35669346  0.88641974  0.63183413    -0.38220
N961        N  0.39601902  0.85502348  0.87787418    -0.37660
N962        N  0.43169158  0.96099702  0.62263635    -0.37660
C963        C  0.44199560  0.99791250  0.75237127    -0.04330
C964        C  0.41963061  0.98421310  0.79264004    -0.01450
C965        C  0.39129194  0.98304114  0.78786098     0.03540
C966        C  0.38603624  0.99838094  0.74646726    -0.04330
C967        C  0.40811585  0.51284579  0.70718763    -0.01430
C968        C  0.43523424  0.51134469  0.70856528     0.03540
C969        C  0.42550362  0.97299497  0.84141531     0.38190
C970        C  0.40282990  0.52923469  0.66505864     0.38180
C971        C  0.45438480  0.52139140  0.66214755     0.36600
C972        C  0.36719867  0.96564464  0.82547181     0.36610
N973        N  0.46755022  0.52816988  0.62257699    -0.38210
N974        N  0.34792172  0.95129335  0.85494217    -0.38220
N975        N  0.39888167  0.54257074  0.63165262    -0.37660
N976        N  0.42825009  0.96465608  0.88269693    -0.37660
C977        C  0.05957022  0.49957821  0.76027572    -0.04330
C978        C  0.07853416  0.51183441  0.80583746    -0.01450
C979        C  0.10792537  0.51512035  0.80745900     0.03540
C980        C  0.11849461  0.00521207  0.76473618    -0.04330
C981        C  0.09953126  0.99170044  0.72048041    -0.01430
C982        C  0.07050178  0.98924687  0.71771044     0.03540
C983        C  0.06748700  0.51915327  0.85326403     0.38190
C984        C  0.11004741  0.98026669  0.67736923     0.38180
C985        C  0.05363725  0.97794285  0.66873961     0.36600
C986        C  0.12754275  0.52896934  0.85320100     0.36610
N987        N  0.04280561  0.96983670  0.62723032    -0.38210
N988        N  0.14321640  0.54000544  0.88959654    -0.38220
N989        N  0.11838783  0.97117554  0.64300709    -0.37660
N990        N  0.05941250  0.52375952  0.89325092    -0.37660
C991        C  0.50131250  0.94062902  0.75027373    -0.04330
C992        C  0.98845980  0.92139199  0.70528653    -0.01450
C993        C  0.98496476  0.89202399  0.70443244     0.03540
C994        C  0.49657226  0.88227567  0.74612166    -0.04330
C995        C  0.51207367  0.90218514  0.78821582    -0.01430
C996        C  0.51301362  0.93032748  0.79194928     0.03540
C997        C  0.98084681  0.93211307  0.65758605     0.38190
C998        C  0.52835434  0.89429756  0.82696657     0.38180
C999        C  0.52423550  0.94677421  0.84115519     0.36600
C1000       C  0.96972178  0.87185022  0.66012594     0.36610
N1001       N  0.53242444  0.95718255  0.88285408    -0.38210
N1002       N  0.95755065  0.85574245  0.62484202    -0.38220
N1003       N  0.54221351  0.88893089  0.85746201    -0.37660
N1004       N  0.97599609  0.93992501  0.61737355    -0.37660
C1005       C  0.17438298  0.71767659  0.68048986    -0.04330
C1006       C  0.16439579  0.70965974  0.62736107    -0.01450
C1007       C  0.16381411  0.73103306  0.59252730     0.03540
C1008       C  0.17408323  0.76101508  0.60966223    -0.04330
C1009       C  0.18589956  0.76969612  0.66141394    -0.01430
C1010       C  0.18600382  0.74817412  0.69680581     0.03540
C1011       C  0.15561308  0.67966232  0.60736554     0.38190
C1012       C  0.19696528  0.80054031  0.67893703     0.38180
C1013       C  0.19796144  0.75761089  0.75001384     0.36600
C1014       C  0.15313279  0.72215618  0.53836244     0.36610
N1015       N  0.20808124  0.76503891  0.79216552    -0.38210
N1016       N  0.14448387  0.71493728  0.49536153    -0.38220
N1017       N  0.20583681  0.82516333  0.69293420    -0.37660
N1018       N  0.14847024  0.65588627  0.59057903    -0.37660
C1019       C  0.03850034  0.81699860  0.68748827    -0.04330
C1020       C  0.03159131  0.79331019  0.65125715    -0.01450
C1021       C  0.05469264  0.79389027  0.61908955     0.03540
C1022       C  0.08413524  0.81985036  0.61836085    -0.04330
C1023       C  0.09119673  0.84286698  0.65645363    -0.01430
C1024       C  0.06898919  0.84033906  0.69286997     0.03540
C1025       C  0.00054053  0.76917851  0.64421057     0.38190
C1026       C  0.12101577  0.86956779  0.65719996     0.38180
C1027       C  0.07714285  0.86135852  0.73681124     0.36600
C1028       C  0.04754110  0.76804767  0.58556706     0.36610
N1029       N  0.08220309  0.87707591  0.77308421    -0.38210
N1030       N  0.04204751  0.74737523  0.55908071    -0.38220
N1031       N  0.14475457  0.89098114  0.65534536    -0.37660
N1032       N  0.47602082  0.74972242  0.63677831    -0.37660
C1033       C  0.23612729  0.91335987  0.61350963    -0.04330
C1034       C  0.26387057  0.93628126  0.59258683    -0.01450
C1035       C  0.28507333  0.95942718  0.62555958     0.03540
C1036       C  0.27999488  0.95861171  0.68065234    -0.04330
C1037       C  0.25235496  0.93561802  0.70188646    -0.01430
C1038       C  0.23032060  0.91314482  0.66825199     0.03540
C1039       C  0.27153365  0.93533873  0.53748499     0.38190
C1040       C  0.24727498  0.93432094  0.75857045     0.38180
C1041       C  0.20295639  0.88852941  0.69067918     0.36600
C1042       C  0.31224234  0.98419363  0.60251667     0.36610
N1043       N  0.18136952  0.86876269  0.70914761    -0.38210
N1044       N  0.33374612  0.00391601  0.58377075    -0.38220
N1045       N  0.24356169  0.93355264  0.80388285    -0.37660
N1046       N  0.27837940  0.93443061  0.49412045    -0.37660
C1047       C  0.45238190  0.67003337  0.69116393    -0.04330
C1048       C  0.42221105  0.66094241  0.70624262    -0.01450
C1049       C  0.40107322  0.65999773  0.66822033     0.03540
C1050       C  0.41013040  0.66816829  0.61506696    -0.04330
C1051       C  0.43953673  0.67469091  0.59947899    -0.01430
C1052       C  0.46077687  0.67629970  0.63753755     0.03540
C1053       C  0.41270598  0.65106345  0.76020870     0.38190
C1054       C  0.44674152  0.67578376  0.54376579     0.38180
C1055       C  0.49071848  0.68234043  0.62104716     0.36600
C1056       C  0.36962353  0.64880944  0.68290437     0.36610
N1057       N  0.01449574  0.68677902  0.60808061    -0.38210
N1058       N  0.34439408  0.63946881  0.69429600    -0.38220
N1059       N  0.45264874  0.67526960  0.49971104    -0.37660
N1060       N  0.40540019  0.64285053  0.80323002    -0.37660
C1061       C  0.22380627  0.55126343  0.69229006    -0.04330
C1062       C  0.23679800  0.54025145  0.65492604    -0.01450
C1063       C  0.25690788  0.55971849  0.61595884     0.03540
C1064       C  0.26297753  0.59008157  0.61206241    -0.04330
C1065       C  0.24999083  0.60092623  0.65004316    -0.01430
C1066       C  0.23140577  0.58197212  0.69070896     0.03540
C1067       C  0.22867419  0.50854531  0.65498894     0.38190
C1068       C  0.25514238  0.63157451  0.64719667     0.38180
C1069       C  0.22010488  0.59427365  0.73114109     0.36600
C1070       C  0.27037667  0.54779925  0.57907720     0.36610
N1071       N  0.21105445  0.60410050  0.76313499    -0.38210
N1072       N  0.28106698  0.53813698  0.54993603    -0.38220
N1073       N  0.25885072  0.65582656  0.64332634    -0.37660
N1074       N  0.22233000  0.48332028  0.65499917    -0.37660
C1075       C  0.32235224  0.73350987  0.61761757    -0.04330
C1076       C  0.30600967  0.74889398  0.60600665    -0.01450
C1077       C  0.30688551  0.77072534  0.64167387     0.03540
C1078       C  0.32372014  0.77707058  0.68933934    -0.04330
C1079       C  0.33824214  0.76031796  0.70264912    -0.01430
C1080       C  0.33727174  0.73843626  0.66715537     0.03540
C1081       C  0.28925298  0.74331606  0.55652368     0.38190
C1082       C  0.35429713  0.76572804  0.75287960     0.38180
C1083       C  0.35052519  0.72002326  0.68254541     0.36600
C1084       C  0.29148543  0.78759650  0.62835870     0.36610
N1085       N  0.36059868  0.70488373  0.69506036    -0.38210
N1086       N  0.27924966  0.80110124  0.61781177    -0.38220
N1087       N  0.36708740  0.77006382  0.79293702    -0.37660
N1088       N  0.27585620  0.73892476  0.51711508    -0.37660
C1089       C  0.04837772  0.82943637  0.30306460    -0.04330
C1090       C  0.08014290  0.84584274  0.29534511    -0.01450
C1091       C  0.09993038  0.84461320  0.33376644     0.03540
C1092       C  0.08809623  0.82774185  0.38082967    -0.04330
C1093       C  0.05625699  0.81127100  0.38812717    -0.01430
C1094       C  0.03650214  0.81185919  0.34918836     0.03540
C1095       C  0.09243453  0.86423704  0.24820587     0.38190
C1096       C  0.04361011  0.79525694  0.43712256     0.38180
C1097       C  0.00384667  0.79570043  0.35775722     0.36600
C1098       C  0.13244544  0.86030185  0.32449004     0.36610
N1099       N  0.47775468  0.78311665  0.36361334    -0.38210
N1100       N  0.15839187  0.87260068  0.31711598    -0.38220
N1101       N  0.03281967  0.78243585  0.47593296    -0.37660
N1102       N  0.10225850  0.87906128  0.21077757    -0.37660
C1103       C  0.32657619  0.74326551  0.39572337    -0.04330
C1104       C  0.31486863  0.73688331  0.34346958    -0.01450
C1105       C  0.31454396  0.75978576  0.31232538     0.03540
C1106       C  0.32185713  0.78793443  0.33529210    -0.04330
C1107       C  0.33057392  0.79311548  0.38940270    -0.01430
C1108       C  0.33495925  0.77182283  0.41819118     0.03540
C1109       C  0.30308358  0.70690651  0.32125707     0.38190
C1110       C  0.33470431  0.82023464  0.41601489     0.38180
C1111       C  0.34787270  0.77945479  0.47126661     0.36600
C1112       C  0.30872000  0.75497104  0.25594114     0.36610
N1113       N  0.35864451  0.78593154  0.51317290    -0.38210
N1114       N  0.30460409  0.75156781  0.21074899    -0.38220
N1115       N  0.33792742  0.84174457  0.43748470    -0.37660
N1116       N  0.29263800  0.68298860  0.30291182    -0.37660
C1117       C  0.45732374  0.68066407  0.31025643    -0.04330
C1118       C  0.46654176  0.70090860  0.35348103    -0.01450
C1119       C  0.44458653  0.70133013  0.38733840     0.03540
C1120       C  0.41351936  0.67907681  0.38184989    -0.04330
C1121       C  0.40451299  0.65853034  0.33884018    -0.01430
C1122       C  0.42613161  0.66041823  0.30176054     0.03540
C1123       C  0.49856893  0.71888632  0.36656413     0.38190
C1124       C  0.37329153  0.63452076  0.33425865     0.38180
C1125       C  0.41680712  0.64115604  0.25512889     0.36600
C1126       C  0.45436225  0.72318835  0.43027379     0.36610
N1127       N  0.41082071  0.62649781  0.21718014    -0.38210
N1128       N  0.46195943  0.74044659  0.46477427    -0.38220
N1129       N  0.34846697  0.61486528  0.33270600    -0.37660
N1130       N  0.02402834  0.73244504  0.37824093    -0.37660
C1131       C  0.17512961  0.76347655  0.38502016    -0.04330
C1132       C  0.19700701  0.75402869  0.39380157    -0.01450
C1133       C  0.19816166  0.73262547  0.35981495     0.03540
C1134       C  0.17702256  0.71984946  0.31789588    -0.04330
C1135       C  0.15632381  0.73033899  0.30729594    -0.01430
C1136       C  0.15561999  0.75229404  0.34033926     0.03540
C1137       C  0.21770825  0.76523150  0.43884486     0.38190
C1138       C  0.13527971  0.71805212  0.26284164     0.38180
C1139       C  0.13495968  0.76356087  0.32792862     0.36600
C1140       C  0.22041648  0.72290067  0.36925256     0.36610
N1141       N  0.11863325  0.77278352  0.31834658    -0.38210
N1142       N  0.23829790  0.71532029  0.37658213    -0.38220
N1143       N  0.11836551  0.70811319  0.22765372    -0.37660
N1144       N  0.23431017  0.77414402  0.47460423    -0.37660
C1145       C  0.26421833  0.58893728  0.37729026    -0.04330
C1146       C  0.23916064  0.56223769  0.39668186    -0.01450
C1147       C  0.21881657  0.54006912  0.36128418     0.03540
C1148       C  0.22198168  0.54536434  0.30629724    -0.04330
C1149       C  0.24776498  0.57127601  0.28659167    -0.01430
C1150       C  0.26879032  0.59320037  0.32206744     0.03540
C1151       C  0.23329569  0.55800142  0.45312194     0.38190
C1152       C  0.25292038  0.57511721  0.22997138     0.38180
C1153       C  0.29436920  0.62039336  0.30140256     0.36600
C1154       C  0.19552262  0.51110836  0.38138729     0.36610
N1155       N  0.31473174  0.64179075  0.28375022    -0.38210
N1156       N  0.17765068  0.48778089  0.39778749    -0.38220
N1157       N  0.25750582  0.57796451  0.18489115    -0.37660
N1158       N  0.22769153  0.55439423  0.49781723    -0.37660
C1159       C  0.27314166  0.94859211  0.30440406    -0.04330
C1160       C  0.25841205  0.91693954  0.29736807    -0.01450
C1161       C  0.23732634  0.89760977  0.33525078     0.03540
C1162       C  0.23156632  0.90967273  0.38150773    -0.04330
C1163       C  0.24469256  0.94145573  0.38654518    -0.01430
C1164       C  0.26555921  0.96081402  0.34828535     0.03540
C1165       C  0.26493929  0.90428762  0.25096722     0.38190
C1166       C  0.23755329  0.95446332  0.43171307     0.38180
C1167       C  0.28012827  0.99338220  0.35518843     0.36600
C1168       C  0.22016115  0.86532349  0.32523414     0.36610
N1169       N  0.29172720  0.51934885  0.36064926    -0.38210
N1170       N  0.20571832  0.83961387  0.31726259    -0.38220
N1171       N  0.23191587  0.96492985  0.46766422    -0.37660
N1172       N  0.27025282  0.89431878  0.21393463    -0.37660
C1173       C  0.05659542  0.55881913  0.25997925    -0.04330
C1174       C  0.07359014  0.56532393  0.30808080    -0.01450
C1175       C  0.10219210  0.59171189  0.31305780     0.03540
C1176       C  0.11403683  0.61188256  0.27046328    -0.04330
C1177       C  0.09712325  0.60628393  0.22327278    -0.01430
C1178       C  0.06866489  0.57997952  0.21784029     0.03540
C1179       C  0.06119893  0.54647776  0.35443794     0.38190
C1180       C  0.10918500  0.62792698  0.17992106     0.38180
C1181       C  0.05305185  0.57525893  0.16761510     0.36600
C1182       C  0.11946621  0.59833857  0.36215844     0.36610
N1183       N  0.04308458  0.57358668  0.12556177    -0.38210
N1184       N  0.13320775  0.60370437  0.40134116    -0.38220
N1185       N  0.11887978  0.64512662  0.14547023    -0.37660
N1186       N  0.05202413  0.53335583  0.39369689    -0.37660
C1187       C  0.49890416  0.56057332  0.25014429    -0.04330
C1188       C  0.00967453  0.58104027  0.29387051    -0.01450
C1189       C  0.01180298  0.60981458  0.29045942     0.03540
C1190       C  0.50133695  0.61807130  0.24505140    -0.04330
C1191       C  0.48928315  0.59754166  0.20252118    -0.01430
C1192       C  0.48914518  0.56965717  0.20405055     0.03540
C1193       C  0.01638118  0.57248107  0.34467543     0.38190
C1194       C  0.47577703  0.60446651  0.15754570     0.38180
C1195       C  0.48111102  0.55207406  0.15571181     0.36600
C1196       C  0.02446739  0.63101161  0.33440228     0.36610
N1197       N  0.47607997  0.54065966  0.11444831    -0.38210
N1198       N  0.03450353  0.64791982  0.36935005    -0.38220
N1199       N  0.46431291  0.60906054  0.12163392    -0.37660
N1200       N  0.02063259  0.56738400  0.38761918    -0.37660
C1201       C  0.11439616  0.50326393  0.24359272    -0.04330
C1202       C  0.10296584  0.01127199  0.19909216    -0.01450
C1203       C  0.07506539  0.01136325  0.20179269     0.03540
C1204       C  0.05703059  0.50175397  0.24835457    -0.04330
C1205       C  0.06827157  0.49258293  0.29230879    -0.01430
C1206       C  0.09711788  0.49442369  0.29044161     0.03540
C1207       C  0.12009357  0.01991707  0.15011703     0.38190
C1208       C  0.05113286  0.48159329  0.34074710     0.38180
C1209       C  0.10889277  0.48701446  0.33731818     0.36600
C1210       C  0.06503873  0.02039785  0.15488114     0.36610
N1211       N  0.11775688  0.48129365  0.37553788    -0.38210
N1212       N  0.05846952  0.02705542  0.11508977    -0.38220
N1213       N  0.03969456  0.47307813  0.38152326    -0.37660
N1214       N  0.13307145  0.02679301  0.11038988    -0.37660
C1215       C  0.49908788  0.94406994  0.24558680    -0.04330
C1216       C  0.00801671  0.93576060  0.19784159    -0.01450
C1217       C  0.00883103  0.90841024  0.19426395     0.03540
C1218       C  0.50091130  0.88891685  0.23804858    -0.04330
C1219       C  0.49149101  0.89647640  0.28525589    -0.01430
C1220       C  0.49032068  0.92363335  0.28905311     0.03540
C1221       C  0.01346092  0.95332122  0.14995232     0.38190
C1222       C  0.48286001  0.87602269  0.33024991     0.38180
C1223       C  0.48078452  0.93008492  0.33897051     0.36600
C1224       C  0.01774677  0.90013024  0.14514174     0.36610
N1225       N  0.47372246  0.93349295  0.38083220    -0.38210
N1226       N  0.02469453  0.89339306  0.10598707    -0.38220
N1227       N  0.47610290  0.85976158  0.36608267    -0.37660
N1228       N  0.01611819  0.96489413  0.10928579    -0.37660
C1229       C  0.44095610  0.94515874  0.25740657    -0.04330
C1230       C  0.42924410  0.92182561  0.21847910    -0.01450
C1231       C  0.40201110  0.89483719  0.22757817     0.03540
C1232       C  0.38354351  0.89264736  0.27050138    -0.04330
C1233       C  0.39450692  0.91533544  0.30942464    -0.01430
C1234       C  0.42383937  0.94059858  0.30448277     0.03540
C1235       C  0.44288593  0.92489253  0.16711937     0.38190
C1236       C  0.37597844  0.91217203  0.35530106     0.38180
C1237       C  0.43710834  0.96017699  0.35003615     0.36600
C1238       C  0.39359020  0.86859337  0.19397987     0.36610
N1239       N  0.44756089  0.97425058  0.38817028    -0.38210
N1240       N  0.38736713  0.84751871  0.16807707    -0.38220
N1241       N  0.36121633  0.90973686  0.39187181    -0.37660
N1242       N  0.45050515  0.92455758  0.12407849    -0.37660
C1243       C  0.37990238  0.99375352  0.23698758    -0.04330
C1244       C  0.39181285  0.98481794  0.19486057    -0.01450
C1245       C  0.42156829  0.98891834  0.19810055     0.03540
C1246       C  0.43995474  0.50168314  0.24417595    -0.04330
C1247       C  0.42781811  0.51142337  0.28578359    -0.01430
C1248       C  0.39812449  0.50747207  0.28195908     0.03540
C1249       C  0.37318450  0.97110733  0.14803872     0.38190
C1250       C  0.44430224  0.52425103  0.33449358     0.38180
C1251       C  0.38616193  0.51773302  0.32463661     0.36600
C1252       C  0.43337681  0.98124363  0.15212113     0.36610
N1253       N  0.37659068  0.52584124  0.35859632    -0.38210
N1254       N  0.44211371  0.97599962  0.11345920    -0.38220
N1255       N  0.45464974  0.53387670  0.37572965    -0.37660
N1256       N  0.35830891  0.96021199  0.11073963    -0.37660
C1257       C  0.32498795  0.54261047  0.81700875    -0.04330
C1258       C  0.31719755  0.56414487  0.79810528    -0.01450
C1259       C  0.31700915  0.58571174  0.83308823     0.03540
C1260       C  0.32700104  0.58736576  0.88592219    -0.04330
C1261       C  0.33477565  0.56592338  0.90485411    -0.01430
C1262       C  0.33267416  0.54298521  0.87112779     0.03540
C1263       C  0.31112970  0.56524018  0.74219575     0.38190
C1264       C  0.34460725  0.56715201  0.95950164     0.38180
C1265       C  0.33802164  0.51952459  0.89275266     0.36600
C1266       C  0.30681082  0.60627557  0.81461619     0.36610
N1267       N  0.34228885  0.50100630  0.91085835    -0.38210
N1268       N  0.29827053  0.62235527  0.79975820    -0.38220
N1269       N  0.35268367  0.56808814  0.00283131    -0.37660
N1270       N  0.30679508  0.56616207  0.69735179    -0.37660
C1271       C  0.31279387  0.53290887  0.17172045    -0.04330
C1272       C  0.32979995  0.56325418  0.18873233    -0.01450
C1273       C  0.33040061  0.58672264  0.15785908     0.03540
C1274       C  0.31435698  0.57991164  0.10924438    -0.04330
C1275       C  0.29546664  0.54926206  0.09435378    -0.01430
C1276       C  0.29458836  0.52581694  0.12575073     0.03540
C1277       C  0.34711264  0.56976717  0.23763872     0.38190
C1278       C  0.27819144  0.54181179  0.04527953     0.38180
C1279       C  0.27601219  0.49446277  0.10974638     0.36600
C1280       C  0.34694599  0.61779013  0.17624349     0.36610
N1281       N  0.26120024  0.96935505  0.09750768    -0.38210
N1282       N  0.35981562  0.64268798  0.19051786    -0.38220
N1283       N  0.26440062  0.53580945  0.00611506    -0.37660
N1284       N  0.36071438  0.57316555  0.27649344    -0.37660
C1285       C  0.26309201  0.68001027  0.89182290    -0.04330
C1286       C  0.23601153  0.67762027  0.91200217    -0.01450
C1287       C  0.21458352  0.67858626  0.87742877     0.03540
C1288       C  0.21977816  0.68138911  0.82227455    -0.04330
C1289       C  0.24837682  0.68725224  0.80290125    -0.01430
C1290       C  0.26974298  0.68593325  0.83751171     0.03540
C1291       C  0.22951205  0.67330616  0.96820991     0.38190
C1292       C  0.25620113  0.69562779  0.74802635     0.38180
C1293       C  0.29848457  0.69061542  0.81730560     0.36600
C1294       C  0.18757376  0.67769397  0.89895000     0.36610
N1295       N  0.32144548  0.69444518  0.80097654    -0.38210
N1296       N  0.16634420  0.67735932  0.91668660    -0.38220
N1297       N  0.26250091  0.70353889  0.70465866    -0.37660
N1298       N  0.22336859  0.66979361  0.01269494    -0.37660
C1299       C  0.41132727  0.73712011  0.89631501    -0.04330
C1300       C  0.43428839  0.76564582  0.91407973    -0.01450
C1301       C  0.45622382  0.78595726  0.87840070     0.03540
C1302       C  0.45434507  0.77866974  0.82388222    -0.04330
C1303       C  0.43146542  0.74983481  0.80637470    -0.01430
C1304       C  0.41040116  0.72893349  0.84273583     0.03540
C1305       C  0.43519840  0.77429820  0.96919463     0.38190
C1306       C  0.42881986  0.74200812  0.75072563     0.38180
C1307       C  0.38727300  0.69925620  0.82496329     0.36600
C1308       C  0.48116820  0.81394938  0.89862500     0.36610
N1309       N  0.36876578  0.67549046  0.81112690    -0.38210
N1310       N  0.00090989  0.83585721  0.91645031    -0.38220
N1311       N  0.42654354  0.73571292  0.70627468    -0.37660
N1312       N  0.43589812  0.78151950  0.01289606    -0.37660
C1313       C  0.21285304  0.66990228  0.18117295    -0.04330
C1314       C  0.23641404  0.69750620  0.15969347    -0.01450
C1315       C  0.25885070  0.69742128  0.12624144     0.03540
C1316       C  0.25807517  0.66989417  0.11330441    -0.04330
C1317       C  0.23208572  0.64246931  0.12815481    -0.01430
C1318       C  0.20820816  0.64303538  0.15531600     0.03540
C1319       C  0.23481040  0.72519837  0.16258930     0.38190
C1320       C  0.22810030  0.61322118  0.11227146     0.38180
C1321       C  0.17775302  0.61854912  0.14342766     0.36600
C1322       C  0.28084117  0.72546852  0.10097208     0.36610
N1323       N  0.15364250  0.59901445  0.13312985    -0.38210
N1324       N  0.29817827  0.74781184  0.08069884    -0.38220
N1325       N  0.22436349  0.58982078  0.09901479    -0.37660
N1326       N  0.23375692  0.74744344  0.16376695    -0.37660
C1327       C  0.45881058  0.78073291  0.18020185    -0.04330
C1328       C  0.42788312  0.76802739  0.19468704    -0.01450
C1329       C  0.40505542  0.74375504  0.16523895     0.03540
C1330       C  0.41296419  0.73172937  0.12157032    -0.04330
C1331       C  0.44402789  0.74273318  0.10988243    -0.01430
C1332       C  0.46685511  0.76728632  0.13884156     0.03540
C1333       C  0.41951888  0.77980859  0.24012477     0.38190
C1334       C  0.45254384  0.73028321  0.06559882     0.38180
C1335       C  0.49853980  0.77968135  0.12412492     0.36600
C1336       C  0.37333682  0.73100087  0.17992750     0.36610
N1337       N  0.02379112  0.78952377  0.11238270    -0.38210
N1338       N  0.34803479  0.72068353  0.19168688    -0.38220
N1339       N  0.45940676  0.72048470  0.03021504    -0.37660
N1340       N  0.41284321  0.78916752  0.27639425    -0.37660
C1341       C  0.08910017  0.76695848  0.87819030    -0.04330
C1342       C  0.09671925  0.75121319  0.84069447    -0.01450
C1343       C  0.07397553  0.72844390  0.80864051     0.03540
C1344       C  0.04304464  0.72049142  0.81478449    -0.04330
C1345       C  0.03565205  0.73761847  0.84982516    -0.01430
C1346       C  0.05859553  0.76095432  0.88088230     0.03540
C1347       C  0.12813956  0.75853753  0.83513613     0.38190
C1348       C  0.00418585  0.73018068  0.85648101     0.38180
C1349       C  0.05021501  0.77723925  0.91833756     0.36600
C1350       C  0.08255712  0.71323355  0.76925062     0.36610
N1351       N  0.04344420  0.79016594  0.94815034    -0.38210
N1352       N  0.08950915  0.70113935  0.73799445    -0.38220
N1353       N  0.47913086  0.72434158  0.86183149    -0.37660
N1354       N  0.15331630  0.76461018  0.83139309    -0.37660
C1355       C  0.03920503  0.72274132  0.17087248    -0.04330
C1356       C  0.03843471  0.71661413  0.11609437    -0.01450
C1357       C  0.06124268  0.73751440  0.08235954     0.03540
C1358       C  0.08410035  0.76551409  0.10241953    -0.04330
C1359       C  0.08331776  0.77303303  0.15586669    -0.01430
C1360       C  0.06083796  0.75177968  0.19002348     0.03540
C1361       C  0.01330430  0.68952435  0.09357199     0.38190
C1362       C  0.10619810  0.80225861  0.17605189     0.38180
C1363       C  0.06008164  0.76009469  0.24457826     0.36600
C1364       C  0.06146071  0.72979208  0.02703734     0.36610
N1365       N  0.05939730  0.76737251  0.28771118    -0.38210
N1366       N  0.06144910  0.72310009  0.98321565    -0.38220
N1367       N  0.12446018  0.82552199  0.19235062    -0.37660
N1368       N  0.49318454  0.66849831  0.07421599    -0.37660
C1369       C  0.18514755  0.91863745  0.88284871    -0.04330
C1370       C  0.16642948  0.91239368  0.83759384    -0.01450
C1371       C  0.16740409  0.93641677  0.80816122     0.03540
C1372       C  0.18673064  0.96665062  0.82404957    -0.04330
C1373       C  0.20753999  0.97301516  0.86590724    -0.01430
C1374       C  0.20678461  0.94905914  0.89541268     0.03540
C1375       C  0.14647376  0.88134106  0.82129470     0.38190
C1376       C  0.22883603  0.00419613  0.87966271     0.38180
C1377       C  0.22705867  0.95592159  0.94057330     0.36600
C1378       C  0.14837201  0.93070947  0.76164417     0.36610
N1379       N  0.24326728  0.96147086  0.97656304    -0.38210
N1380       N  0.13374631  0.92837078  0.72463228    -0.38220
N1381       N  0.24582098  0.52920631  0.88979465    -0.37660
N1382       N  0.13077417  0.85646450  0.80851302    -0.37660
C1383       C  0.28223579  0.82159528  0.82054679    -0.04330
C1384       C  0.26612099  0.83656266  0.80534240    -0.01450
C1385       C  0.24414589  0.83663291  0.83947578     0.03540
C1386       C  0.23842586  0.82203679  0.88908818    -0.04330
C1387       C  0.25392693  0.80634364  0.90365110    -0.01430
C1388       C  0.27578417  0.80611118  0.86939308     0.03540
C1389       C  0.27249154  0.85217973  0.75484501     0.38190
C1390       C  0.24849499  0.79172049  0.95502131     0.38180
C1391       C  0.29264899  0.79110642  0.88538404     0.36600
C1392       C  0.22708976  0.85141373  0.82359099     0.36610
N1393       N  0.30620127  0.77923710  0.89810528    -0.38210
N1394       N  0.21310886  0.86290751  0.81143038    -0.38220
N1395       N  0.24427278  0.78019353  0.99609436    -0.37660
N1396       N  0.27773255  0.86466097  0.71457969    -0.37660
C1397       C  0.17904450  0.96233721  0.17071248    -0.04330
C1398       C  0.17467533  0.96325230  0.11566810    -0.01450
C1399       C  0.17159861  0.93953217  0.08304527     0.03540
C1400       C  0.17597875  0.91626694  0.10429630    -0.04330
C1401       C  0.18355875  0.91691107  0.15837071    -0.01430
C1402       C  0.18446579  0.93960684  0.19189244     0.03540
C1403       C  0.17546079  0.98961583  0.09191033     0.38190
C1404       C  0.18978842  0.89395904  0.17951231     0.38180
C1405       C  0.19081801  0.93956000  0.24799870     0.36600
C1406       C  0.16346734  0.93898032  0.02760659     0.36610
N1407       N  0.19612086  0.94002526  0.29277832    -0.38210
N1408       N  0.15643233  0.93862683  0.98377328    -0.38220
N1409       N  0.19485634  0.87567248  0.19624791    -0.37660
N1410       N  0.17710586  0.01087590  0.07195144    -0.37660
C1411       C  0.28001212  0.83017088  0.19489289    -0.04330
C1412       C  0.24866972  0.81677497  0.20733838    -0.01450
C1413       C  0.22733296  0.81474933  0.16863941     0.03540
C1414       C  0.23733017  0.82710617  0.11778973    -0.04330
C1415       C  0.26840645  0.84010129  0.10493424    -0.01430
C1416       C  0.28946296  0.84099340  0.14260747     0.03540
C1417       C  0.23857357  0.80636651  0.26066783     0.38190
C1418       C  0.27892696  0.85281398  0.05246460     0.38180
C1419       C  0.32083905  0.85312973  0.12634777     0.36600
C1420       C  0.19534108  0.80109131  0.18178436     0.36610
N1421       N  0.34558494  0.86337197  0.11147107    -0.38210
N1422       N  0.16980627  0.79010612  0.19232029    -0.38220
N1423       N  0.28746463  0.86316525  0.01094237    -0.37660
N1424       N  0.23117915  0.79824780  0.30361612    -0.37660
Fe1425     Fe  0.66224848  0.29395849  0.99951155     1.65780
Fe1426     Fe  0.63283198  0.34186558  0.99149823     1.73250
Fe1427     Fe  0.70980378  0.37066037  0.99857500     1.54410
O1428       O  0.72226672  0.35454369  0.06275397    -0.80670
O1429       O  0.65360398  0.37742960  0.93832293    -0.78970
O1430       O  0.69534799  0.30421564  0.05772856    -0.83170
O1431       O  0.69358738  0.30199693  0.94068111    -0.78030
O1432       O  0.69829822  0.39486236  0.05029303    -0.79800
O1433       O  0.61403789  0.31262129  0.92828840    -0.82550
C1434       C  0.71821321  0.32528174  0.92755012     0.98220
C1435       C  0.71640999  0.32848808  0.07795928     1.05660
O1436       O  0.66829426  0.33547547  0.99644090    -1.11530
O1437       O  0.60665339  0.30732415  0.04404246    -0.73960
O1438       O  0.63032872  0.28072067  0.05850726    -0.77450
O1439       O  0.72691508  0.35136703  0.94679307    -0.78140
C1440       C  0.60885186  0.28622972  0.06699477     0.97120
O1441       O  0.62802367  0.27782470  0.94212208    -0.76090
O1442       O  0.64756090  0.37186392  0.05408907    -0.81290
C1443       C  0.68018393  0.39403403  0.92010899     0.99750
C1444       C  0.67381428  0.39239332  0.06844937     1.05660
O1445       O  0.70290018  0.39167699  0.93480616    -0.76930
C1446       C  0.61210412  0.28728898  0.91801830     1.03960
Fe1447     Fe  0.83680192  0.20526562  0.00978129     1.65780
Fe1448     Fe  0.86771033  0.15885274  0.00501960     1.73250
Fe1449     Fe  0.79086579  0.12977732  0.99289994     1.54420
O1450       O  0.77185501  0.14702173  0.04471224    -0.80670
O1451       O  0.85389122  0.13022013  0.94049223    -0.78970
O1452       O  0.80737948  0.19208416  0.07313412    -0.83170
O1453       O  0.80152834  0.19715384  0.95772117    -0.78030
O1454       O  0.79653915  0.10615444  0.05465060    -0.79800
O1455       O  0.89195551  0.19489264  0.95370149    -0.82550
C1456       C  0.78365532  0.17549524  0.92783811     0.98220
C1457       C  0.78067989  0.16956845  0.07552742     1.05660
O1458       O  0.83197025  0.16456766  0.00251584    -1.11530
O1459       O  0.88743847  0.18659857  0.07005651    -0.73960
O1460       O  0.87245673  0.22082273  0.06287699    -0.77450
O1461       O  0.78125014  0.14950887  0.92994726    -0.78140
C1462       C  0.88917935  0.21143253  0.08332385     0.97120
O1463       O  0.86714109  0.22128112  0.94768684    -0.76090
O1464       O  0.84657023  0.12223578  0.05634275    -0.81290
C1465       C  0.82816539  0.11026590  0.92310754     0.99750
C1466       C  0.81944325  0.10454522  0.07170179     1.05660
O1467       O  0.80330112  0.10742688  0.93946041    -0.76930
C1468       C  0.88846100  0.21617430  0.93433165     1.03960
C1469       C  0.99860172  0.03041381  0.25173206     0.03300
C1470       C  0.97042023  0.00238846  0.24943405     0.03300
C1471       C  0.97068518  0.47422734  0.25051030     0.03300
C1472       C  0.99881555  0.47381077  0.24935240     0.03300
C1473       C  0.52691097  0.00172429  0.25087673     0.03300
C1474       C  0.52671588  0.02981415  0.25398487     0.03300
C1475       C  0.81580724  0.00907645  0.20090168     0.04140
C1476       C  0.84380768  0.00951733  0.20031632    -0.12010
C1477       C  0.84885873  0.49021515  0.23325054     0.01640
C1478       C  0.82534293  0.46975792  0.26613675    -0.10540
C1479       C  0.79709048  0.46889438  0.26665222     0.04130
C1480       C  0.79237822  0.48854693  0.23374471    -0.09960
H1481       H  0.86221859  0.02599742  0.17610647     0.09730
H1482       H  0.82934892  0.45521336  0.29252996     0.07250
H1483       H  0.77096812  0.48860770  0.23511620     0.07100
C1484       C  0.67589832  0.48403717  0.20591163     0.04140
C1485       C  0.64787380  0.48364301  0.20820242    -0.12010
C1486       C  0.64427908  0.50392267  0.24103159     0.01640
C1487       C  0.66900470  0.02451042  0.27200125    -0.10540
C1488       C  0.69698013  0.02484652  0.27034642     0.04130
C1489       C  0.70045925  0.00481156  0.23690738    -0.09960
H1490       H  0.62877719  0.46738126  0.18463410     0.09730
H1491       H  0.66641204  0.04010937  0.29785720     0.07250
H1492       H  0.72205150  0.00512048  0.23556534     0.07100
C1493       C  0.67379568  0.19285294  0.28968183     0.04140
C1494       C  0.69641659  0.19447295  0.25529693    -0.12010
C1495       C  0.69220697  0.16861265  0.22664149     0.01640
C1496       C  0.66792417  0.14066317  0.24394251    -0.10540
C1497       C  0.64421624  0.13928790  0.27391046     0.04130
C1498       C  0.64714953  0.16534533  0.29696793    -0.09960
H1499       H  0.71711145  0.21583849  0.25294037     0.09730
H1500       H  0.66587392  0.11928335  0.23350089     0.07250
H1501       H  0.62866281  0.16423192  0.32031670     0.07100
C1502       C  0.98008954  0.17826059  0.27655027     0.04140
C1503       C  0.99860805  0.20148051  0.24144247    -0.12010
C1504       C  0.51890112  0.19807874  0.20796063     0.01640
C1505       C  0.51990467  0.17079945  0.20935453    -0.10540
C1506       C  0.00105747  0.14731658  0.24382658     0.04130
C1507       C  0.98155684  0.15141714  0.27765510    -0.09960
H1508       H  0.99685277  0.22187219  0.23965075     0.09730
H1509       H  0.53541696  0.16787374  0.18373348     0.07250
H1510       H  0.96693609  0.13333432  0.30431056     0.07100
C1511       C  0.82366825  0.31318109  0.30224720     0.04140
C1512       C  0.80009226  0.30955927  0.26746433    -0.12010
C1513       C  0.80312384  0.33405992  0.23641503     0.01640
C1514       C  0.82937981  0.36241279  0.24287745    -0.10540
C1515       C  0.85336609  0.36553258  0.27502809     0.04130
C1516       C  0.85059985  0.34103425  0.30394681    -0.09960
H1517       H  0.77984341  0.28763676  0.26374844     0.09730
H1518       H  0.83208336  0.38172950  0.22025412     0.07250
H1519       H  0.86994605  0.34350259  0.32680679     0.07100
C1520       C  0.52728786  0.33224425  0.26538240     0.04140
C1521       C  0.00567616  0.30689275  0.23707009    -0.12010
C1522       C  0.98264204  0.30824098  0.20791823     0.01640
C1523       C  0.98162444  0.33543809  0.20686248    -0.10540
C1524       C  0.00320258  0.36086283  0.23522565     0.04520
C1525       C  0.52609635  0.35918041  0.26398810    -0.09960
H1526       H  0.00607994  0.28578961  0.23951065     0.09730
H1527       H  0.96370181  0.33661409  0.18502752     0.07250
H1528       H  0.54220704  0.37847667  0.28721797     0.07100
Fe1529     Fe  0.83790724  0.12983781  0.49489764     1.65780
Fe1530     Fe  0.79280719  0.16274526  0.49295201     1.73250
Fe1531     Fe  0.86997678  0.20674190  0.50391088     1.54410
O1532       O  0.89256432  0.19301446  0.55671786    -0.80670
O1533       O  0.80471356  0.19452651  0.43410927    -0.78970
O1534       O  0.86765307  0.14271907  0.55811515    -0.83170
O1535       O  0.87350685  0.14923144  0.44142413    -0.78030
O1536       O  0.85237811  0.21833713  0.56781586    -0.79800
O1537       O  0.77672207  0.12969532  0.43523525    -0.82550
C1538       C  0.89113587  0.17562553  0.42343272     0.98220
C1539       C  0.88857022  0.16797503  0.57468129     1.05660
O1540       O  0.83357231  0.16640836  0.49706915    -1.11530
O1541       O  0.77629878  0.13048007  0.55126523    -0.73960
O1542       O  0.80348720  0.10695532  0.54924745    -0.77450
O1543       O  0.89093967  0.19908873  0.44035133    -0.78140
C1544       C  0.78210859  0.11033456  0.56818595     0.97120
O1545       O  0.80825217  0.11089337  0.43153836    -0.76090
O1546       O  0.80261618  0.19555497  0.55041921    -0.81290
C1547       C  0.82844747  0.21999839  0.42863782     0.99750
C1548       C  0.82588311  0.21434113  0.57658921     1.05660
O1549       O  0.85321830  0.22715274  0.45286882    -0.76930
C1550       C  0.78487023  0.11185400  0.41584416     1.03960
Fe1551     Fe  0.70558115  0.33792739  0.50088099     1.65780
Fe1552     Fe  0.65918851  0.36915080  0.50329285     1.73250
Fe1553     Fe  0.62842288  0.29220612  0.49739798     1.54410
O1554       O  0.64507516  0.27852448  0.43525606    -0.80670
O1555       O  0.62384364  0.34983103  0.55742096    -0.78970
O1556       O  0.69520791  0.30416023  0.44639425    -0.83170
O1557       O  0.69588455  0.30763285  0.56251837    -0.78030
O1558       O  0.60544500  0.30419384  0.44270706    -0.79800
O1559       O  0.68923894  0.38858184  0.56627026    -0.82550
C1560       C  0.67209015  0.28271856  0.57271811     0.98220
C1561       C  0.67160072  0.28349943  0.42405842     1.05660
O1562       O  0.66437634  0.33308646  0.50068256    -1.11530
O1563       O  0.69337286  0.39301153  0.44845080    -0.73960
O1564       O  0.71912912  0.36817396  0.43875715    -0.77450
O1565       O  0.64654939  0.27456640  0.55067330    -0.78140
C1566       C  0.71345033  0.38901904  0.42545592     0.97120
O1567       O  0.72281425  0.37271685  0.55508095    -0.76090
O1568       O  0.62900070  0.35456459  0.44054020    -0.81290
C1569       C  0.60670680  0.32361859  0.57641550     0.99750
C1570       C  0.60889555  0.32884355  0.42372180     1.05660
O1571       O  0.60756278  0.30047934  0.56005141    -0.76930
C1572       C  0.71426662  0.38958967  0.57722329     1.03960
C1573       C  0.00123314  0.47053072  0.75397741     0.03300
C1574       C  0.52919326  0.99885154  0.75703495     0.03300
C1575       C  0.52863007  0.02687324  0.75866562     0.03300
C1576       C  0.00002876  0.02644961  0.75805680     0.03300
C1577       C  0.97210572  0.49813420  0.75532645     0.03300
C1578       C  0.97267537  0.47021669  0.75367305     0.03300
C1579       C  0.68358252  0.49110467  0.79773900     0.04140
C1580       C  0.70649325  0.01191280  0.76448121    -0.12010
C1581       C  0.70059883  0.03043443  0.73065274     0.01640
C1582       C  0.67176189  0.02823581  0.73132169    -0.10540
C1583       C  0.64936820  0.50859084  0.76638841     0.04130
C1584       C  0.65548982  0.49038426  0.80003028    -0.09960
H1585       H  0.72829070  0.01266659  0.76321069     0.09730
H1586       H  0.66653936  0.04154601  0.70397612     0.07250
H1587       H  0.63765312  0.47413702  0.82546321     0.07100
C1588       C  0.82734969  0.02106258  0.78004417     0.04140
C1589       C  0.80243123  0.50047963  0.74902705    -0.12010
C1590       C  0.80525308  0.47975061  0.71593018     0.01640
C1591       C  0.83273644  0.47916536  0.71529577    -0.10540
C1592       C  0.85756068  0.49982745  0.74541080     0.04130
C1593       C  0.85502164  0.02099927  0.77690097    -0.09960
H1594       H  0.78105972  0.50059450  0.75058427     0.09730
H1595       H  0.83484607  0.46266300  0.69113874     0.07250
H1596       H  0.87448875  0.03701785  0.80006541     0.07100
C1597       C  0.97397322  0.16851109  0.72943519     0.04140
C1598       C  0.99677161  0.19467710  0.75447597    -0.12010
C1599       C  0.51848816  0.19301022  0.78756993     0.01640
C1600       C  0.51727302  0.16491338  0.79426347    -0.10540
C1601       C  0.99537490  0.13917663  0.76738955     0.04130
C1602       C  0.97349136  0.14094255  0.73588642    -0.09960
H1603       H  0.99787536  0.21623972  0.74747507     0.09730
H1604       H  0.53401884  0.16324751  0.81893462     0.07250
H1605       H  0.95687405  0.12110252  0.71439179     0.07100
C1606       C  0.67189739  0.19395827  0.71868539     0.04140
C1607       C  0.69696085  0.19834473  0.74979207    -0.12010
C1608       C  0.69440117  0.17605972  0.78557975     0.01640
C1609       C  0.66704791  0.14839730  0.78789864    -0.10540
C1610       C  0.64203664  0.14353693  0.75683535     0.04130
C1611       C  0.64423613  0.16660290  0.72355174    -0.09960
H1612       H  0.71839130  0.21920049  0.74663433     0.09730
H1613       H  0.66517529  0.13065355  0.81416189     0.07250
H1614       H  0.62446177  0.16297985  0.70077145     0.07100
C1615       C  0.51420730  0.31942377  0.71704415     0.04140
C1616       C  0.99508264  0.29718016  0.75341005    -0.12010
C1617       C  0.97487722  0.30191382  0.78503417     0.01640
C1618       C  0.97455850  0.32936356  0.78081300    -0.10540
C1619       C  0.99377762  0.35172866  0.74517315     0.04130
C1620       C  0.51266967  0.34622448  0.71228715    -0.09960
H1621       H  0.99650998  0.27672478  0.75822245     0.09730
H1622       H  0.95972994  0.33358167  0.80601820     0.07250
H1623       H  0.52768175  0.36373737  0.68508878     0.07100
C1624       C  0.82755134  0.30235260  0.72391798     0.04140
C1625       C  0.80351289  0.29958553  0.75551007    -0.12010
C1626       C  0.80734851  0.32397852  0.78705297     0.01640
C1627       C  0.83523608  0.35103958  0.78699838    -0.10540
C1628       C  0.85929219  0.35391073  0.75565290     0.04130
C1629       C  0.85540646  0.32953201  0.72420422    -0.09960
H1630       H  0.78194140  0.27866155  0.75534909     0.09730
H1631       H  0.83815151  0.36995041  0.81111061     0.07250
H1632       H  0.87393815  0.33181427  0.69956446     0.07100
C1633       C  0.99743605  0.11108822  0.76662211    -0.04330
C1634       C  0.98425581  0.08944954  0.80692297    -0.01450
C1635       C  0.98576267  0.06242795  0.80498085     0.03540
C1636       C  0.99916230  0.05593967  0.76090661    -0.04330
C1637       C  0.51195477  0.07804230  0.72008991    -0.01430
C1638       C  0.51188148  0.10567038  0.72399386     0.03540
C1639       C  0.96934789  0.09524858  0.85080606     0.38190
C1640       C  0.52378377  0.07257205  0.67182003     0.38180
C1641       C  0.52684058  0.12878638  0.68372555     0.36600
C1642       C  0.97576273  0.04305752  0.85110516     0.36610
N1643       N  0.53906024  0.14712496  0.65169597    -0.38210
N1644       N  0.96895216  0.02965838  0.89044908    -0.38220
N1645       N  0.53258206  0.06996080  0.63102158    -0.37660
N1646       N  0.95743181  0.09989664  0.88569058    -0.37660
C1647       C  0.61357529  0.11380563  0.75818986    -0.04330
C1648       C  0.60739310  0.09243859  0.71791103    -0.01450
C1649       C  0.57935559  0.06515229  0.71661028     0.03540
C1650       C  0.55841107  0.05698950  0.75929790    -0.04330
C1651       C  0.56616602  0.07810069  0.80176760    -0.01430
C1652       C  0.59267469  0.10679592  0.79955153     0.03540
C1653       C  0.63020366  0.09841598  0.67785427     0.38190
C1654       C  0.54851969  0.07062685  0.84986411     0.38180
C1655       C  0.59834427  0.12935779  0.83991222     0.36600
C1656       C  0.57148780  0.04755121  0.66827019     0.36610
N1657       N  0.60238221  0.14727202  0.87191519    -0.38210
N1658       N  0.56611071  0.03571922  0.62734563    -0.38220
N1659       N  0.53672829  0.06639222  0.89062508    -0.37660
N1660       N  0.64853679  0.10282582  0.64644207    -0.37660
C1661       C  0.94309318  0.44007190  0.75372796    -0.04330
C1662       C  0.92223750  0.43079172  0.71027953    -0.01450
C1663       C  0.89508569  0.40261186  0.71106382     0.03540
C1664       C  0.88833797  0.38306196  0.75454148    -0.04330
C1665       C  0.90868815  0.39171894  0.79762742    -0.01430
C1666       C  0.93565012  0.42005506  0.79766344     0.03540
C1667       C  0.92844608  0.44886574  0.66288294     0.38190
C1668       C  0.90167052  0.37132381  0.84232460     0.38180
C1669       C  0.95403106  0.42912830  0.84545373     0.36600
C1670       C  0.87372551  0.39363551  0.66692993     0.36610
N1671       N  0.96678373  0.43564232  0.88569966    -0.38210
N1672       N  0.85669368  0.38641948  0.63183303    -0.38220
N1673       N  0.89601879  0.35502276  0.87787310    -0.37660
N1674       N  0.93169178  0.46099689  0.62263599    -0.37660
C1675       C  0.94199544  0.49791213  0.75237121    -0.04330
C1676       C  0.91963044  0.48421272  0.79263997    -0.01450
C1677       C  0.89129184  0.48304092  0.78786104     0.03540
C1678       C  0.88603621  0.49838083  0.74646743    -0.04330
C1679       C  0.90811612  0.01284599  0.70718783    -0.01430
C1680       C  0.93523451  0.01134492  0.70856532     0.03540
C1681       C  0.92550340  0.47299447  0.84141514     0.38190
C1682       C  0.90283008  0.02923488  0.66505891     0.38180
C1683       C  0.95438499  0.02139163  0.66214749     0.36600
C1684       C  0.86719857  0.46564450  0.82547193     0.36610
N1685       N  0.96755033  0.02817012  0.62257685    -0.38210
N1686       N  0.84792163  0.45129327  0.85494235    -0.38220
N1687       N  0.89888180  0.04257092  0.63165296    -0.37660
N1688       N  0.92824983  0.46465549  0.88269670    -0.37660
C1689       C  0.55957037  0.99957845  0.76027539    -0.04330
C1690       C  0.57853441  0.01183463  0.80583704    -0.01450
C1691       C  0.60792552  0.01512031  0.80745853     0.03540
C1692       C  0.61849433  0.50521188  0.76473626    -0.04330
C1693       C  0.59953100  0.49170029  0.72048047    -0.01430
C1694       C  0.57050151  0.48924671  0.71771052     0.03540
C1695       C  0.56748742  0.01915366  0.85326363     0.38190
C1696       C  0.61004716  0.48026658  0.67736924     0.38180
C1697       C  0.55363700  0.47794276  0.66873966     0.36600
C1698       C  0.62754301  0.02896931  0.85320040     0.36610
N1699       N  0.54280538  0.46983666  0.62723035    -0.38210
N1700       N  0.64321676  0.04000543  0.88959584    -0.38220
N1701       N  0.61838759  0.47117547  0.64300706    -0.37660
N1702       N  0.55941307  0.02376004  0.89325057    -0.37660
C1703       C  0.00131241  0.44062868  0.75027382    -0.04330
C1704       C  0.48845959  0.42139182  0.70528653    -0.01450
C1705       C  0.48496458  0.39202384  0.70443238     0.03540
C1706       C  0.99657205  0.38227525  0.74612205    -0.04330
C1707       C  0.01207341  0.40218473  0.78821621    -0.01430
C1708       C  0.01301345  0.43032713  0.79194950     0.03540
C1709       C  0.48084659  0.43211292  0.65758608     0.38190
C1710       C  0.02835395  0.39429711  0.82696715     0.38180
C1711       C  0.02423528  0.44677387  0.84115541     0.36600
C1712       C  0.46972166  0.37185011  0.66012582     0.36610
N1713       N  0.03242416  0.45718217  0.88285433    -0.38210
N1714       N  0.45755059  0.35574236  0.62484183    -0.38220
N1715       N  0.04221301  0.38893037  0.85746275    -0.37660
N1716       N  0.47599587  0.43992487  0.61737360    -0.37660
C1717       C  0.67438314  0.21767689  0.68048958    -0.04330
C1718       C  0.66439593  0.20966012  0.62736080    -0.01450
C1719       C  0.66381426  0.23103350  0.59252721     0.03540
C1720       C  0.67408337  0.26101549  0.60966235    -0.04330
C1721       C  0.68589969  0.26969643  0.66141407    -0.01430
C1722       C  0.68600400  0.24817438  0.69680573     0.03540
C1723       C  0.65561319  0.17966272  0.60736512     0.38190
C1724       C  0.69696527  0.30054055  0.67893742     0.38180
C1725       C  0.69796170  0.25761107  0.75001375     0.36600
C1726       C  0.65313289  0.22215668  0.53836235     0.36610
N1727       N  0.70808157  0.26503902  0.79216540    -0.38210
N1728       N  0.64448389  0.21493777  0.49536148    -0.38220
N1729       N  0.70583665  0.32516352  0.69293477    -0.37660
N1730       N  0.64847033  0.15588668  0.59057851    -0.37660
C1731       C  0.53850038  0.31699870  0.68748804    -0.04330
C1732       C  0.53159141  0.29331034  0.65125685    -0.01450
C1733       C  0.55469276  0.29389057  0.61908912     0.03540
C1734       C  0.58413531  0.31985074  0.61836044    -0.04330
C1735       C  0.59119675  0.34286730  0.65645330    -0.01430
C1736       C  0.56898920  0.34033924  0.69286973     0.03540
C1737       C  0.50054068  0.26917855  0.64421038     0.38190
C1738       C  0.62101576  0.36956816  0.65719962     0.38180
C1739       C  0.57714280  0.36135860  0.73681113     0.36600
C1740       C  0.54754128  0.26804806  0.58556642     0.36610
N1741       N  0.58220297  0.37707590  0.77308423    -0.38210
N1742       N  0.54204774  0.24737572  0.55907983    -0.38220
N1743       N  0.64475454  0.39098151  0.65534497    -0.37660
N1744       N  0.97602129  0.24972104  0.63678164    -0.37660
C1745       C  0.73612738  0.41336032  0.61350944    -0.04330
C1746       C  0.76387071  0.43628171  0.59258679    -0.01450
C1747       C  0.78507344  0.45942757  0.62555968     0.03540
C1748       C  0.77999494  0.45861199  0.68065244    -0.04330
C1749       C  0.75235499  0.43561827  0.70188642    -0.01430
C1750       C  0.73032063  0.41314517  0.66825180     0.03540
C1751       C  0.77153388  0.43533922  0.53748499     0.38190
C1752       C  0.74727499  0.43432101  0.75857042     0.38180
C1753       C  0.70295639  0.38852973  0.69067884     0.36600
C1754       C  0.81224248  0.48419404  0.60251692     0.36610
N1755       N  0.68136949  0.36876299  0.70914718    -0.38210
N1756       N  0.83374629  0.50391644  0.58377111    -0.38220
N1757       N  0.74356166  0.43355254  0.80388282    -0.37660
N1758       N  0.77837970  0.43443111  0.49412049    -0.37660
C1759       C  0.95238217  0.17003354  0.69116273    -0.04330
C1760       C  0.92221140  0.16094271  0.70624175    -0.01450
C1761       C  0.90107347  0.15999801  0.66821967     0.03540
C1762       C  0.91013052  0.16816856  0.61506626    -0.04330
C1763       C  0.93953677  0.17469110  0.59947795    -0.01430
C1764       C  0.96077698  0.17629977  0.63753626     0.03540
C1765       C  0.91270651  0.15106392  0.76020795     0.38190
C1766       C  0.94674144  0.17578411  0.54376465     0.38180
C1767       C  0.99071850  0.18234039  0.62104554     0.36600
C1768       C  0.86962380  0.14880962  0.68290396     0.36610
N1769       N  0.51449595  0.18677960  0.60807995    -0.38210
N1770       N  0.84439436  0.13946890  0.69429578    -0.38220
N1771       N  0.95264856  0.17527014  0.49970978    -0.37660
N1772       N  0.90540086  0.14285114  0.80322937    -0.37660
C1773       C  0.72380631  0.05126276  0.69228985    -0.04330
C1774       C  0.73679854  0.04025097  0.65492645    -0.01450
C1775       C  0.75690857  0.05971809  0.61595944     0.03540
C1776       C  0.76297761  0.09008095  0.61206215    -0.04330
C1777       C  0.74999036  0.10092540  0.65004224    -0.01430
C1778       C  0.73140544  0.08197134  0.69070824     0.03540
C1779       C  0.72867506  0.00854493  0.65498969     0.38190
C1780       C  0.75514104  0.13157335  0.64719478     0.38180
C1781       C  0.72010432  0.09427283  0.73114004     0.36600
C1782       C  0.77037820  0.04779914  0.57907899     0.36610
N1783       N  0.71105371  0.10409965  0.76313370    -0.38210
N1784       N  0.78106920  0.03813710  0.54993882    -0.38220
N1785       N  0.75884859  0.15582507  0.64332361    -0.37660
N1786       N  0.72233111  0.98331996  0.65500016    -0.37660
C1787       C  0.82235095  0.23350873  0.61761791    -0.04330
C1788       C  0.80600800  0.24889250  0.60600737    -0.01450
C1789       C  0.80688416  0.27072416  0.64167426     0.03540
C1790       C  0.82371935  0.27706990  0.68933917    -0.04330
C1791       C  0.83824150  0.26031741  0.70264887    -0.01430
C1792       C  0.83727090  0.23843553  0.66715536     0.03540
C1793       C  0.78925056  0.24331395  0.55652511     0.38190
C1794       C  0.85429681  0.26572777  0.75287907     0.38180
C1795       C  0.85052463  0.22002276  0.68254530     0.36600
C1796       C  0.79148384  0.28759510  0.62835927     0.36610
N1797       N  0.86059836  0.20488344  0.69506020    -0.38210
N1798       N  0.77924787  0.30109968  0.61781247    -0.38220
N1799       N  0.86708732  0.27006375  0.79293628    -0.37660
N1800       N  0.77585320  0.23892216  0.51711707    -0.37660
C1801       C  0.54837795  0.32943609  0.30306386    -0.04330
C1802       C  0.58014313  0.34584231  0.29534423    -0.01450
C1803       C  0.59993060  0.34461297  0.33376578     0.03540
C1804       C  0.58809646  0.32774201  0.38082938    -0.04330
C1805       C  0.55625723  0.31127148  0.38812720    -0.01430
C1806       C  0.53650237  0.31185940  0.34918811     0.03540
C1807       C  0.59243474  0.36423635  0.24820470     0.38190
C1808       C  0.54361039  0.29525816  0.43712319     0.38180
C1809       C  0.50384692  0.29570092  0.35775717     0.36600
C1810       C  0.63244565  0.36030147  0.32448927     0.36610
N1811       N  0.97775459  0.28312127  0.36361848    -0.38210
N1812       N  0.65839206  0.37260023  0.31711509    -0.38220
N1813       N  0.53281992  0.28243769  0.47593408    -0.37660
N1814       N  0.60225868  0.37906038  0.21077616    -0.37660
C1815       C  0.82657473  0.24326539  0.39572545    -0.04330
C1816       C  0.81486797  0.23688415  0.34347110    -0.01450
C1817       C  0.81454312  0.25978700  0.31232839     0.03540
C1818       C  0.82185468  0.28793472  0.33529732    -0.04330
C1819       C  0.83057033  0.29311454  0.38940849    -0.01430
C1820       C  0.83495655  0.27182196  0.41819527     0.03540
C1821       C  0.80308401  0.20690800  0.32125645     0.38190
C1822       C  0.83469883  0.32023243  0.41602285     0.38180
C1823       C  0.84786998  0.27945338  0.47127075     0.36600
C1824       C  0.80872106  0.25497392  0.25594349     0.36610
N1825       N  0.85864194  0.28592984  0.51317696    -0.38210
N1826       N  0.80460686  0.25157208  0.21075082    -0.38220
N1827       N  0.83792037  0.34174131  0.43749443    -0.37660
N1828       N  0.79263922  0.18299060  0.30290932    -0.37660
C1829       C  0.95732422  0.18066542  0.31025693    -0.04330
C1830       C  0.96654194  0.20091014  0.35348127    -0.01450
C1831       C  0.94458648  0.20133141  0.38733839     0.03540
C1832       C  0.91351940  0.17907786  0.38184965    -0.04330
C1833       C  0.90451330  0.15853156  0.33883973    -0.01430
C1834       C  0.92613214  0.16041953  0.30176055     0.03540
C1835       C  0.99856906  0.21888856  0.36656428     0.38190
C1836       C  0.87329181  0.13452214  0.33425735     0.38180
C1837       C  0.91680789  0.14115742  0.25512879     0.36600
C1838       C  0.95436192  0.22318960  0.43027380     0.36610
N1839       N  0.91082151  0.12649921  0.21718001    -0.38210
N1840       N  0.96195896  0.24044779  0.46477433    -0.38220
N1841       N  0.84846721  0.11486679  0.33270374    -0.37660
N1842       N  0.52402860  0.23244646  0.37824202    -0.37660
C1843       C  0.67512964  0.26347568  0.38502291    -0.04330
C1844       C  0.69700767  0.25402868  0.39380507    -0.01450
C1845       C  0.69816248  0.23262495  0.35982009     0.03540
C1846       C  0.67702290  0.21984752  0.31790214    -0.04330
C1847       C  0.65632327  0.23033587  0.30730160    -0.01430
C1848       C  0.65561928  0.25229145  0.34034313     0.03540
C1849       C  0.71770952  0.26523295  0.43884740     0.38190
C1850       C  0.63527851  0.21804728  0.26284848     0.38180
C1851       C  0.63495793  0.26355694  0.32793180     0.36600
C1852       C  0.72041805  0.22290117  0.36925810     0.36610
N1853       N  0.61863055  0.27277836  0.31834913    -0.38210
N1854       N  0.73830003  0.21532155  0.37658799    -0.38220
N1855       N  0.61836378  0.20810699  0.22766154    -0.37660
N1856       N  0.73431195  0.27414661  0.47460598    -0.37660
C1857       C  0.76421887  0.08893673  0.37728954    -0.04330
C1858       C  0.73916168  0.06223675  0.39668110    -0.01450
C1859       C  0.71881725  0.04006848  0.36128338     0.03540
C1860       C  0.72198190  0.04536410  0.30629647    -0.04330
C1861       C  0.74776455  0.07127643  0.28659087    -0.01430
C1862       C  0.76879015  0.09320050  0.32206670     0.03540
C1863       C  0.73329743  0.05799989  0.45312133     0.38190
C1864       C  0.75291828  0.07511932  0.22997024     0.38180
C1865       C  0.79436860  0.12039386  0.30140189     0.36600
C1866       C  0.69552249  0.01110818  0.38138669     0.36610
N1867       N  0.81473086  0.14179145  0.28374947    -0.38210
N1868       N  0.67764970  0.98778136  0.39778778    -0.38220
N1869       N  0.75750210  0.07796816  0.18488959    -0.37660
N1870       N  0.72769377  0.05439215  0.49781675    -0.37660
C1871       C  0.77314127  0.44859139  0.30440225    -0.04330
C1872       C  0.75841147  0.41693879  0.29736674    -0.01450
C1873       C  0.73732600  0.39760927  0.33524998     0.03540
C1874       C  0.73156636  0.40967251  0.38150696    -0.04330
C1875       C  0.74469283  0.44145555  0.38654402    -0.01430
C1876       C  0.76555930  0.46081359  0.34828375     0.03540
C1877       C  0.76493827  0.40428660  0.25096578     0.38190
C1878       C  0.73755390  0.45446343  0.43171190     0.38180
C1879       C  0.78012872  0.49338180  0.35518659     0.36600
C1880       C  0.72016059  0.36532295  0.32523383     0.36610
N1881       N  0.79172631  0.01934869  0.36064969    -0.38210
N1882       N  0.70571754  0.33961330  0.31726270    -0.38220
N1883       N  0.73191674  0.46493020  0.46766301    -0.37660
N1884       N  0.77025148  0.39431765  0.21393301    -0.37660
C1885       C  0.55659640  0.05882014  0.25998071    -0.04330
C1886       C  0.57359303  0.06532030  0.30807940    -0.01450
C1887       C  0.60219605  0.09170678  0.31305764     0.03540
C1888       C  0.61403927  0.11188134  0.27046815    -0.04330
C1889       C  0.59712347  0.10628782  0.22328149    -0.01430
C1890       C  0.56866450  0.07998435  0.21784696     0.03540
C1891       C  0.56120210  0.04647109  0.35443339     0.38190
C1892       C  0.60918380  0.12793496  0.17993559     0.38180
C1893       C  0.55304993  0.07526823  0.16762431     0.36600
C1894       C  0.61947270  0.09832796  0.36215449     0.36610
N1895       N  0.54308124  0.07359901  0.12557312    -0.38210
N1896       N  0.63321636  0.10368921  0.40133420    -0.38220
N1897       N  0.61887749  0.14513792  0.14548945    -0.37660
N1898       N  0.55202679  0.03334636  0.39368969    -0.37660
C1899       C  0.99890416  0.06057411  0.25014518    -0.04330
C1900       C  0.50967866  0.08104228  0.29386934    -0.01450
C1901       C  0.51180704  0.10981654  0.29045880     0.03540
C1902       C  0.00133729  0.11807229  0.24505279    -0.04330
C1903       C  0.98928322  0.09754265  0.20252261    -0.01430
C1904       C  0.98914511  0.06965809  0.20405168     0.03540
C1905       C  0.51638933  0.07248426  0.34467209     0.38190
C1906       C  0.97577690  0.10446757  0.15754750     0.38180
C1907       C  0.98111072  0.05207505  0.15571286     0.36600
C1908       C  0.52447575  0.13101522  0.33439848     0.36610
N1909       N  0.97607945  0.04066075  0.11444926    -0.38210
N1910       N  0.53451545  0.14792486  0.36934362    -0.38220
N1911       N  0.96431259  0.10906162  0.12163604    -0.37660
N1912       N  0.52064401  0.06738748  0.38761401    -0.37660
C1913       C  0.61439775  0.00326678  0.24359145    -0.04330
C1914       C  0.60296621  0.51127190  0.19909211    -0.01450
C1915       C  0.57506564  0.51136290  0.20179249     0.03540
C1916       C  0.55703201  0.00175560  0.24835350    -0.04330
C1917       C  0.56826816  0.99257423  0.29230110    -0.01430
C1918       C  0.59711225  0.99441026  0.29043125     0.03540
C1919       C  0.62009407  0.51991720  0.15011712     0.38190
C1920       C  0.55112785  0.98158105  0.34073713     0.38180
C1921       C  0.60887771  0.98697852  0.33729462     0.36600
C1922       C  0.56503895  0.52039743  0.15488090     0.36610
N1923       N  0.61773432  0.98123784  0.37550223    -0.38210
N1924       N  0.55846972  0.52705497  0.11508951    -0.38220
N1925       N  0.53968845  0.97306369  0.38151188    -0.37660
N1926       N  0.63307208  0.52679333  0.11039011    -0.37660
C1927       C  0.99908666  0.44406891  0.24558563    -0.04330
C1928       C  0.50801696  0.43576013  0.19784099    -0.01450
C1929       C  0.50883127  0.40840978  0.19426316     0.03540
C1930       C  0.00091072  0.38891602  0.23804798    -0.04330
C1931       C  0.99149755  0.39647929  0.28525959    -0.01430
C1932       C  0.99032608  0.42363568  0.28905597     0.03540
C1933       C  0.51346114  0.45332082  0.14995181     0.38190
C1934       C  0.98287447  0.37602974  0.33025871     0.38180
C1935       C  0.98079382  0.43008930  0.33897541     0.36600
C1936       C  0.51774704  0.40012987  0.14514090     0.36610
N1937       N  0.97373436  0.43349840  0.38083858    -0.38210
N1938       N  0.52469482  0.39339275  0.10598618    -0.38220
N1939       N  0.97612387  0.35977207  0.36609562    -0.37660
N1940       N  0.51611835  0.46489378  0.10928534    -0.37660
C1941       C  0.94095538  0.44515797  0.25740952    -0.04330
C1942       C  0.92924044  0.42182482  0.21848206    -0.01450
C1943       C  0.90200780  0.39483676  0.22758478     0.03540
C1944       C  0.88354250  0.39264782  0.27051101    -0.04330
C1945       C  0.89450913  0.41533542  0.30943528    -0.01430
C1946       C  0.92384181  0.44059790  0.30448968     0.03540
C1947       C  0.94287772  0.42489118  0.16711836     0.38190
C1948       C  0.87598390  0.41217210  0.35531642     0.38180
C1949       C  0.93711410  0.46017612  0.35004220     0.36600
C1950       C  0.89358500  0.36859224  0.19398718     0.36610
N1951       N  0.94756951  0.47424984  0.38817521    -0.38210
N1952       N  0.88736038  0.34751700  0.16808496    -0.38220
N1953       N  0.86122449  0.40973698  0.39189116    -0.37660
N1954       N  0.95049174  0.42455445  0.12407433    -0.37660
C1955       C  0.87990174  0.49375270  0.23698492    -0.04330
C1956       C  0.89181420  0.48482070  0.19485586    -0.01450
C1957       C  0.92156939  0.48892053  0.19809766     0.03540
C1958       C  0.93995462  0.00168386  0.24417652    -0.04330
C1959       C  0.92781794  0.01142401  0.28578421    -0.01430
C1960       C  0.89812422  0.00747249  0.28195986     0.03540
C1961       C  0.87318816  0.47111433  0.14802998     0.38190
C1962       C  0.94430214  0.02425185  0.33449407     0.38180
C1963       C  0.88616158  0.01773329  0.32463749     0.36600
C1964       C  0.93337929  0.48124762  0.15211804     0.36610
N1965       N  0.87659025  0.02584137  0.35859728    -0.38210
N1966       N  0.94211727  0.47600480  0.11345619    -0.38220
N1967       N  0.95464968  0.03387766  0.37573005    -0.37660
N1968       N  0.85831452  0.46022257  0.11072752    -0.37660
C1969       C  0.82498780  0.04261018  0.81700870    -0.04330
C1970       C  0.81719746  0.06414457  0.79810504    -0.01450
C1971       C  0.81700870  0.08571127  0.83308797     0.03540
C1972       C  0.82700020  0.08736510  0.88592214    -0.04330
C1973       C  0.83477475  0.06592271  0.90485426    -0.01430
C1974       C  0.83267364  0.04298473  0.87112787     0.03540
C1975       C  0.81113014  0.06524013  0.74219534     0.38190
C1976       C  0.84460591  0.06715115  0.95950203     0.38180
C1977       C  0.83802119  0.01952417  0.89275277     0.36600
C1978       C  0.80681040  0.10627507  0.81461571     0.36610
N1979       N  0.84228848  0.00100593  0.91085848    -0.38210
N1980       N  0.79827011  0.12235473  0.79975749    -0.38220
N1981       N  0.85268198  0.06808712  0.00283189    -0.37660
N1982       N  0.80679601  0.06616224  0.69735125    -0.37660
C1983       C  0.81279325  0.03290889  0.17172135    -0.04330
C1984       C  0.82979959  0.06325431  0.18873251    -0.01450
C1985       C  0.83039998  0.08672257  0.15785907     0.03540
C1986       C  0.81435586  0.07991126  0.10924485    -0.04330
C1987       C  0.79546524  0.04926159  0.09435508    -0.01430
C1988       C  0.79458718  0.02581667  0.12575226     0.03540
C1989       C  0.84711283  0.06976769  0.23763835     0.38190
C1990       C  0.77818952  0.04181102  0.04528135     0.38180
C1991       C  0.77601071  0.99446239  0.10974870     0.36600
C1992       C  0.84694568  0.11779019  0.17624275     0.36610
N1993       N  0.76119995  0.46935511  0.09750570    -0.38210
N1994       N  0.85981556  0.14268814  0.19051659    -0.38220
N1995       N  0.76439829  0.03580844  0.00611732    -0.37660
N1996       N  0.86071502  0.07316652  0.27649268    -0.37660
C1997       C  0.76309182  0.18001023  0.89182241    -0.04330
C1998       C  0.73601169  0.17762108  0.91200165    -0.01450
C1999       C  0.71458374  0.17858705  0.87742810     0.03540
C2000       C  0.71977820  0.18138923  0.82227385    -0.04330
C2001       C  0.74837662  0.18725174  0.80290050    -0.01430
C2002       C  0.76974267  0.18593266  0.83751107     0.03540
C2003       C  0.72951258  0.17330807  0.96820958     0.38190
C2004       C  0.75620080  0.19562677  0.74802540     0.38180
C2005       C  0.79848411  0.19061439  0.81730500     0.36600
C2006       C  0.68757423  0.17769539  0.89894911     0.36610
N2007       N  0.82144491  0.19444389  0.80097587    -0.38210
N2008       N  0.66634486  0.17736125  0.91668549    -0.38220
N2009       N  0.76250046  0.20353747  0.70465751    -0.37660
N2010       N  0.72336941  0.16979654  0.01269476    -0.37660
C2011       C  0.91132688  0.23711967  0.89631551    -0.04330
C2012       C  0.93428815  0.26564528  0.91408039    -0.01450
C2013       C  0.95622371  0.28595672  0.87840146     0.03540
C2014       C  0.95434496  0.27866933  0.82388291    -0.04330
C2015       C  0.93146515  0.24983453  0.80637522    -0.01430
C2016       C  0.91040081  0.22893316  0.84273624     0.03540
C2017       C  0.93519825  0.27429751  0.96919539     0.38190
C2018       C  0.92881950  0.24200806  0.75072602     0.38180
C2019       C  0.88727269  0.19925589  0.82496354     0.36600
C2020       C  0.98116820  0.31394871  0.89862591     0.36610
N2021       N  0.86876554  0.17549015  0.81112703    -0.38210
N2022       N  0.50091004  0.33585679  0.91645011    -0.38220
N2023       N  0.92654311  0.23571313  0.70627494    -0.37660
N2024       N  0.93589804  0.28151868  0.01289692    -0.37660
C2025       C  0.71285363  0.16990350  0.18117446    -0.04330
C2026       C  0.73641594  0.19750734  0.15969749    -0.01450
C2027       C  0.75885169  0.19742164  0.12624405     0.03540
C2028       C  0.75807396  0.16989382  0.11330366    -0.04330
C2029       C  0.73208273  0.14246953  0.12815089    -0.01430
C2030       C  0.70820623  0.14303711  0.15531291     0.03540
C2031       C  0.73481431  0.22520048  0.16259649     0.38190
C2032       C  0.72809458  0.11322081  0.11226451     0.38180
C2033       C  0.67774977  0.11855489  0.14342009     0.36600
C2034       C  0.78084337  0.22546899  0.10097659     0.36610
N2035       N  0.65363763  0.09902427  0.13311928    -0.38210
N2036       N  0.79818140  0.24781239  0.08070475    -0.38220
N2037       N  0.72435589  0.08981997  0.09900619    -0.37660
N2038       N  0.73376242  0.24744634  0.16377636    -0.37660
C2039       C  0.95880944  0.28073142  0.18020311    -0.04330
C2040       C  0.92788197  0.26802594  0.19468823    -0.01450
C2041       C  0.90505425  0.24375369  0.16523995     0.03540
C2042       C  0.91296304  0.23172806  0.12157127    -0.04330
C2043       C  0.94402674  0.24273171  0.10988364    -0.01430
C2044       C  0.96685396  0.26728476  0.13884290     0.03540
C2045       C  0.91951775  0.27980705  0.24012610     0.38190
C2046       C  0.95254271  0.23028171  0.06560010     0.38180
C2047       C  0.99853866  0.27967966  0.12412644     0.36600
C2048       C  0.87333564  0.23099963  0.17992830     0.36610
N2049       N  0.52379108  0.28952306  0.11238203    -0.38210
N2050       N  0.84803359  0.22068239  0.19168750    -0.38220
N2051       N  0.95940564  0.22048317  0.03021637    -0.37660
N2052       N  0.91284210  0.28916588  0.27639572    -0.37660
C2053       C  0.58910052  0.26695826  0.87819093    -0.04330
C2054       C  0.59671955  0.25121302  0.84069489    -0.01450
C2055       C  0.57397582  0.22844396  0.80864056     0.03540
C2056       C  0.54304495  0.22049162  0.81478437    -0.04330
C2057       C  0.53565241  0.23761855  0.84982540    -0.01430
C2058       C  0.55859588  0.26095414  0.88088298     0.03540
C2059       C  0.62813981  0.25853718  0.83513670     0.38190
C2060       C  0.50418624  0.23018093  0.85648105     0.38180
C2061       C  0.55021536  0.27723889  0.91833862     0.36600
C2062       C  0.58255738  0.21323370  0.76925046     0.36610
N2063       N  0.54344456  0.29016545  0.94815168    -0.38210
N2064       N  0.58950938  0.20113956  0.73799410    -0.38220
N2065       N  0.97913070  0.22434148  0.86183047    -0.37660
N2066       N  0.65331651  0.26460966  0.83139381    -0.37660
C2067       C  0.53920596  0.22274090  0.17087335    -0.04330
C2068       C  0.53843665  0.21661278  0.11609569    -0.01450
C2069       C  0.56124406  0.23751347  0.08236046     0.03540
C2070       C  0.58410074  0.26551389  0.10241973    -0.04330
C2071       C  0.58331764  0.27303321  0.15586645    -0.01430
C2072       C  0.56083804  0.25177984  0.19002347     0.03540
C2073       C  0.51330844  0.18952085  0.09357431     0.38190
C2074       C  0.60619752  0.30225914  0.17605113     0.38180
C2075       C  0.56008152  0.26009525  0.24457794     0.36600
C2076       C  0.56146253  0.22979096  0.02703847     0.36610
N2077       N  0.55939710  0.26737330  0.28771065    -0.38210
N2078       N  0.56145128  0.22309899  0.98321687    -0.38220
N2079       N  0.62445932  0.32552278  0.19234941    -0.37660
N2080       N  0.99318445  0.16849891  0.07421714    -0.37660
C2081       C  0.68514750  0.41863738  0.88284867    -0.04330
C2082       C  0.66642934  0.41239359  0.83759391    -0.01450
C2083       C  0.66740391  0.43641667  0.80816131     0.03540
C2084       C  0.68673048  0.46665053  0.82404958    -0.04330
C2085       C  0.70753992  0.47301509  0.86590709    -0.01430
C2086       C  0.70678461  0.44905909  0.89541248     0.03540
C2087       C  0.64647360  0.38134097  0.82129483     0.38190
C2088       C  0.72883602  0.50419607  0.87966240     0.38180
C2089       C  0.72705884  0.45592157  0.94057284     0.36600
C2090       C  0.64837180  0.43070936  0.76164431     0.36610
N2091       N  0.74326761  0.46147089  0.97656235    -0.38210
N2092       N  0.63374610  0.42837073  0.72463244    -0.38220
N2093       N  0.74582052  0.02920590  0.88979539    -0.37660
N2094       N  0.63077401  0.35646441  0.80851318    -0.37660
C2095       C  0.78223599  0.32159538  0.82054687    -0.04330
C2096       C  0.76612097  0.33656251  0.80534238    -0.01450
C2097       C  0.74414601  0.33663288  0.83947598     0.03540
C2098       C  0.73842644  0.32203721  0.88908876    -0.04330
C2099       C  0.75392791  0.30634450  0.90365199    -0.01430
C2100       C  0.77578490  0.30611181  0.86939365     0.03540
C2101       C  0.77249118  0.35217925  0.75484469     0.38190
C2102       C  0.74849667  0.29172213  0.95502283     0.38180
C2103       C  0.79265001  0.29110737  0.88538471     0.36600
C2104       C  0.72708960  0.35141339  0.82359106     0.36610
N2105       N  0.80620250  0.27923828  0.89810601    -0.38210
N2106       N  0.71310852  0.36290696  0.81143032    -0.38220
N2107       N  0.74427502  0.28019580  0.99609640    -0.37660
N2108       N  0.77773196  0.36466025  0.71457915    -0.37660
C2109       C  0.67904502  0.46233745  0.17071250    -0.04330
C2110       C  0.67467589  0.46325261  0.11566812    -0.01450
C2111       C  0.67159900  0.43953242  0.08304528     0.03540
C2112       C  0.67597890  0.41626705  0.10429631    -0.04330
C2113       C  0.68355883  0.41691108  0.15837073    -0.01430
C2114       C  0.68446605  0.43960693  0.19189247     0.03540
C2115       C  0.67546149  0.48961622  0.09191041     0.38190
C2116       C  0.68978822  0.39395886  0.17951231     0.38180
C2117       C  0.69081814  0.43955996  0.24799877     0.36600
C2118       C  0.66346774  0.43898063  0.02760661     0.36610
N2119       N  0.69612087  0.44002512  0.29277842    -0.38210
N2120       N  0.65643273  0.43862718  0.98377331    -0.38220
N2121       N  0.69485589  0.37567212  0.19624786    -0.37660
N2122       N  0.67710666  0.51087634  0.07195159    -0.37660
C2123       C  0.78001200  0.33017345  0.19489772    -0.04330
C2124       C  0.74866910  0.31677566  0.20734082    -0.01450
C2125       C  0.72733267  0.31474947  0.16864063     0.03540
C2126       C  0.73733048  0.32710730  0.11779174    -0.04330
C2127       C  0.76840722  0.34010424  0.10493843    -0.01430
C2128       C  0.78946366  0.34099757  0.14261322     0.03540
C2129       C  0.73857192  0.30636574  0.26066925     0.38190
C2130       C  0.77892822  0.35281732  0.05246915     0.38180
C2131       C  0.82084052  0.35313709  0.12635579     0.36600
C2132       C  0.69534037  0.30108979  0.18178358     0.36610
N2133       N  0.84558691  0.36338223  0.11148025    -0.38210
N2134       N  0.66980526  0.29010329  0.19231798    -0.38220
N2135       N  0.78746615  0.36316875  0.01094710    -0.37660
N2136       N  0.73117663  0.29824581  0.30361673    -0.37660
Fe2137     Fe  0.66224815  0.79395837  0.99951224     1.65780
Fe2138     Fe  0.63283151  0.84186519  0.99149785     1.73250
Fe2139     Fe  0.70980323  0.87066022  0.99857592     1.54410
O2140       O  0.72226560  0.85454385  0.06275617    -0.80670
O2141       O  0.65360387  0.87742950  0.93832330    -0.78970
O2142       O  0.69534802  0.80421579  0.05772861    -0.83170
O2143       O  0.69358677  0.80199681  0.94068126    -0.78030
O2144       O  0.69829715  0.89486258  0.05029218    -0.79800
O2145       O  0.61403817  0.81262134  0.92828744    -0.82550
C2146       C  0.71821299  0.82528155  0.92755150     0.98220
C2147       C  0.71640943  0.82848821  0.07796039     1.05660
O2148       O  0.66829383  0.83547527  0.99644133    -1.11530
O2149       O  0.60665258  0.80732337  0.04404127    -0.73960
O2150       O  0.63032872  0.78072089  0.05850863    -0.77450
O2151       O  0.72691505  0.85136666  0.94679547    -0.78140
C2152       C  0.60885140  0.78622944  0.06699482     0.97120
O2153       O  0.62802302  0.77782425  0.94212324    -0.76090
O2154       O  0.64755981  0.87186323  0.05408897    -0.81290
C2155       C  0.68018380  0.89403369  0.92010908     0.99750
C2156       C  0.67381307  0.89239332  0.06844826     1.05660
O2157       O  0.70289996  0.89167637  0.93480592    -0.76930
C2158       C  0.61210399  0.78728876  0.91801836     1.03960
Fe2159     Fe  0.83680238  0.70526583  0.00978149     1.65780
Fe2160     Fe  0.86771082  0.65885294  0.00501949     1.73250
Fe2161     Fe  0.79086632  0.62977751  0.99290056     1.54420
O2162       O  0.77185587  0.64702211  0.04471309    -0.80670
O2163       O  0.85389162  0.63022045  0.94049189    -0.78970
O2164       O  0.80738029  0.69208467  0.07313481    -0.83170
O2165       O  0.80152852  0.69715389  0.95772190    -0.78030
O2166       O  0.79653986  0.60615469  0.05465111    -0.79800
O2167       O  0.89195592  0.69489294  0.95370162    -0.82550
C2168       C  0.78365548  0.67549522  0.92783895     0.98220
C2169       C  0.78068084  0.66956876  0.07552850     1.05660
O2170       O  0.83197075  0.66456786  0.00251613    -1.11530
O2171       O  0.88743892  0.68659864  0.07005656    -0.73960
O2172       O  0.87245744  0.72082301  0.06287665    -0.77450
O2173       O  0.78125047  0.64950893  0.92994800    -0.78140
C2174       C  0.88917994  0.71143269  0.08332368     0.97120
O2175       O  0.86714119  0.72128111  0.94768660    -0.76090
O2176       O  0.84657089  0.62223584  0.05634237    -0.81290
C2177       C  0.82816573  0.61026611  0.92310759     0.99750
C2178       C  0.81944397  0.60454531  0.07170172     1.05660
O2179       O  0.80330150  0.60742699  0.93946091    -0.76930
C2180       C  0.88846122  0.71617444  0.93433158     1.03960
C2181       C  0.99860217  0.53041397  0.25173223     0.03300
C2182       C  0.97042068  0.50238864  0.24943416     0.03300
C2183       C  0.97068480  0.97422720  0.25051005     0.03300
C2184       C  0.99881521  0.97381069  0.24935214     0.03300
C2185       C  0.52690969  0.50172243  0.25087667     0.03300
C2186       C  0.52671468  0.52981227  0.25398524     0.03300
C2187       C  0.81580755  0.50907601  0.20090069     0.04140
C2188       C  0.84380796  0.50951682  0.20031519    -0.12010
C2189       C  0.84885839  0.99021554  0.23325149     0.01640
C2190       C  0.82534251  0.96975819  0.26613746    -0.10540
C2191       C  0.79709004  0.96889462  0.26665283     0.04130
C2192       C  0.79237784  0.98854724  0.23374544    -0.09960
H2193       H  0.86221884  0.52599687  0.17610523     0.09730
H2194       H  0.82934845  0.95521352  0.29253052     0.07250
H2195       H  0.77096770  0.98860794  0.23511679     0.07100
C2196       C  0.67589829  0.98404058  0.20590408     0.04140
C2197       C  0.64787435  0.98364745  0.20819537    -0.12010
C2198       C  0.64427984  0.00392519  0.24102945     0.01640
C2199       C  0.66900495  0.52451055  0.27199923    -0.10540
C2200       C  0.69698032  0.52484627  0.27034727     0.04130
C2201       C  0.70045930  0.50480958  0.23691279    -0.09960
H2202       H  0.62877776  0.96738757  0.18462473     0.09730
H2203       H  0.66641304  0.54011160  0.29785081     0.07250
H2204       H  0.72205162  0.50511858  0.23557207     0.07100
C2205       C  0.67379422  0.69285375  0.28967669     0.04140
C2206       C  0.69641569  0.69447249  0.25529440    -0.12010
C2207       C  0.69220559  0.66861168  0.22663988     0.01640
C2208       C  0.66792173  0.64066290  0.24394053    -0.10540
C2209       C  0.64421321  0.63928886  0.27390494     0.04130
C2210       C  0.64714686  0.66534686  0.29696060    -0.09960
H2211       H  0.71711154  0.71583737  0.25293924     0.09730
H2212       H  0.66587124  0.61928279  0.23350277     0.07250
H2213       H  0.62865992  0.66423429  0.32030754     0.07100
C2214       C  0.98009019  0.67826084  0.27655171     0.04140
C2215       C  0.99860847  0.70148071  0.24144363    -0.12010
C2216       C  0.51889937  0.69807743  0.20795715     0.01640
C2217       C  0.51990289  0.67079809  0.20934921    -0.10540
C2218       C  0.00105824  0.64731696  0.24382789     0.04130
C2219       C  0.98155772  0.65141751  0.27765668    -0.09960
H2220       H  0.99685300  0.72187228  0.23965177     0.09730
H2221       H  0.53541550  0.66787301  0.18372798     0.07250
H2222       H  0.96693713  0.63333471  0.30431232     0.07100
C2223       C  0.82366821  0.81318049  0.30224622     0.04140
C2224       C  0.80009213  0.80955872  0.26746363    -0.12010
C2225       C  0.80312368  0.83405941  0.23641451     0.01640
C2226       C  0.82937968  0.86241225  0.24287682    -0.10540
C2227       C  0.85336603  0.86553200  0.27502720     0.04130
C2228       C  0.85059985  0.84103363  0.30394569    -0.09960
H2229       H  0.77984321  0.78763624  0.26374790     0.09730
H2230       H  0.83208317  0.88172900  0.22025366     0.07250
H2231       H  0.86994608  0.84350195  0.32680555     0.07100
C2232       C  0.52728777  0.83224522  0.26538417     0.04140
C2233       C  0.00567646  0.80689303  0.23707013    -0.12010
C2234       C  0.98264235  0.80824118  0.20791812     0.01640
C2235       C  0.98162466  0.83543823  0.20686226    -0.10540
C2236       C  0.00320269  0.86086300  0.23522549     0.04520
C2237       C  0.52609583  0.85918121  0.26399149    -0.09960
H2238       H  0.00608030  0.78578991  0.23951081     0.09730
H2239       H  0.96370201  0.83661415  0.18502721     0.07250
H2240       H  0.54220592  0.87847710  0.28722277     0.07100
Fe2241     Fe  0.83790711  0.62983799  0.49489833     1.65780
Fe2242     Fe  0.79280744  0.66274580  0.49295280     1.73250
Fe2243     Fe  0.86997703  0.70674208  0.50391164     1.54410
O2244       O  0.89256440  0.69301440  0.55671855    -0.80670
O2245       O  0.80471402  0.69452666  0.43410939    -0.78970
O2246       O  0.86765255  0.64271900  0.55811650    -0.83170
O2247       O  0.87350712  0.64923156  0.44142561    -0.78030
O2248       O  0.85237849  0.71833746  0.56781673    -0.79800
O2249       O  0.77672188  0.62969545  0.43523682    -0.82550
C2250       C  0.89113615  0.67562557  0.42343391     0.98220
C2251       C  0.88856995  0.66797492  0.57468237     1.05660
O2252       O  0.83357244  0.66640865  0.49706991    -1.11530
O2253       O  0.77629904  0.63048101  0.55126654    -0.73960
O2254       O  0.80348666  0.60695543  0.54924739    -0.77450
O2255       O  0.89093984  0.69908880  0.44035205    -0.78140
C2256       C  0.78210841  0.61033506  0.56818650     0.97120
O2257       O  0.80825238  0.61089402  0.43153833    -0.76090
O2258       O  0.80261669  0.69555587  0.55041936    -0.81290
C2259       C  0.82844794  0.71999853  0.42863801     0.99750
C2260       C  0.82588358  0.71434179  0.57658969     1.05660
O2261       O  0.85321867  0.72715299  0.45286949    -0.76930
C2262       C  0.78487014  0.61185438  0.41584500     1.03960
Fe2263     Fe  0.70558139  0.83792713  0.50088108     1.65780
Fe2264     Fe  0.65918864  0.86915051  0.50329376     1.73250
Fe2265     Fe  0.62842307  0.79220584  0.49739796     1.54410
O2266       O  0.64507554  0.77852420  0.43525625    -0.80670
O2267       O  0.62384419  0.84983082  0.55742248    -0.78970
O2268       O  0.69520837  0.80416030  0.44639356    -0.83170
O2269       O  0.69588475  0.80763223  0.56251794    -0.78030
O2270       O  0.60544559  0.80419361  0.44270636    -0.79800
O2271       O  0.68923941  0.88858167  0.56627064    -0.82550
C2272       C  0.67209020  0.78271817  0.57271830     0.98220
C2273       C  0.67160112  0.78349948  0.42405788     1.05660
O2274       O  0.66437653  0.83308618  0.50068290    -1.11530
O2275       O  0.69337258  0.89301118  0.44845118    -0.73960
O2276       O  0.71912937  0.86817410  0.43875774    -0.77450
O2277       O  0.64654937  0.77456617  0.55067387    -0.78140
C2278       C  0.71345023  0.88901895  0.42545640     0.97120
O2279       O  0.72281442  0.87271627  0.55508172    -0.76090
O2280       O  0.62900039  0.85456433  0.44054174    -0.81290
C2281       C  0.60670697  0.82361825  0.57641614     0.99750
C2282       C  0.60889574  0.82884338  0.42372212     1.05660
O2283       O  0.60756253  0.80047895  0.56005100    -0.76930
C2284       C  0.71426694  0.88958924  0.57722391     1.03960
C2285       C  0.00123332  0.97053092  0.75397759     0.03300
C2286       C  0.52919302  0.49885121  0.75703539     0.03300
C2287       C  0.52862982  0.52687290  0.75866609     0.03300
C2288       C  0.00002851  0.52644937  0.75805680     0.03300
C2289       C  0.97210596  0.99813445  0.75532657     0.03300
C2290       C  0.97267557  0.97021692  0.75367327     0.03300
C2291       C  0.68358245  0.99110434  0.79773889     0.04140
C2292       C  0.70649326  0.51191320  0.76448132    -0.12010
C2293       C  0.70059875  0.53043489  0.73065315     0.01640
C2294       C  0.67176183  0.52823626  0.73132235    -0.10540
C2295       C  0.64936823  0.00859054  0.76638785     0.04130
C2296       C  0.65548978  0.99038400  0.80002996    -0.09960
H2297       H  0.72829070  0.51266699  0.76321050     0.09730
H2298       H  0.66653925  0.54154652  0.70397698     0.07250
H2299       H  0.63765305  0.97413686  0.82546296     0.07100
C2300       C  0.82734955  0.52106259  0.78004403     0.04140
C2301       C  0.80243141  0.00047959  0.74902715    -0.12010
C2302       C  0.80525332  0.97975058  0.71593035     0.01640
C2303       C  0.83273671  0.97916540  0.71529600    -0.10540
C2304       C  0.85756091  0.99982755  0.74541103     0.04130
C2305       C  0.85502147  0.52099920  0.77690079    -0.09960
H2306       H  0.78105988  0.00059443  0.75058430     0.09730
H2307       H  0.83484639  0.96266305  0.69113904     0.07250
H2308       H  0.87448860  0.53701775  0.80006522     0.07100
C2309       C  0.97397260  0.66851065  0.72943675     0.04140
C2310       C  0.99677105  0.69467668  0.75447737    -0.12010
C2311       C  0.51848813  0.69300992  0.78757023     0.01640
C2312       C  0.51727291  0.66491306  0.79426396    -0.10540
C2313       C  0.99537445  0.63917626  0.76739080     0.04130
C2314       C  0.97349078  0.64094213  0.73588792    -0.09960
H2315       H  0.99787479  0.71623929  0.74747647     0.09730
H2316       H  0.53401871  0.66324718  0.81893518     0.07250
H2317       H  0.95687345  0.62110209  0.71439334     0.07100
C2318       C  0.67189713  0.69395806  0.71868667     0.04140
C2319       C  0.69696054  0.69834454  0.74979354    -0.12010
C2320       C  0.69440089  0.67605950  0.78558118     0.01640
C2321       C  0.66704765  0.64839703  0.78789985    -0.10540
C2322       C  0.64203639  0.64353666  0.75683651     0.04130
C2323       C  0.64423588  0.66660266  0.72355297    -0.09960
H2324       H  0.71839098  0.71920032  0.74663590     0.09730
H2325       H  0.66517503  0.63065323  0.81416296     0.07250
H2326       H  0.62446153  0.66297960  0.70077263     0.07100
C2327       C  0.51420737  0.81942399  0.71704377     0.04140
C2328       C  0.99508253  0.79718027  0.75340993    -0.12010
C2329       C  0.97487717  0.80191398  0.78503407     0.01640
C2330       C  0.97455850  0.82936375  0.78081295    -0.10540
C2331       C  0.99377767  0.85172884  0.74517314     0.04130
C2332       C  0.51266994  0.84622481  0.71228687    -0.09960
H2333       H  0.99650982  0.77672486  0.75822228     0.09730
H2334       H  0.95972996  0.83358188  0.80601815     0.07250
H2335       H  0.52768213  0.86373770  0.68508861     0.07100
C2336       C  0.82755136  0.80235297  0.72391889     0.04140
C2337       C  0.80351291  0.79958587  0.75551104    -0.12010
C2338       C  0.80734851  0.82397885  0.78705400     0.01640
C2339       C  0.83523606  0.85103994  0.78699935    -0.10540
C2340       C  0.85929216  0.85391112  0.75565380     0.04130
C2341       C  0.85540645  0.82953240  0.72420511    -0.09960
H2342       H  0.78194144  0.77866187  0.75535009     0.09730
H2343       H  0.83815149  0.86995076  0.81111161     0.07250
H2344       H  0.87393814  0.83181470  0.69956530     0.07100
C2345       C  0.99743569  0.61108789  0.76662308    -0.04330
C2346       C  0.98425548  0.58944910  0.80692378    -0.01450
C2347       C  0.98576237  0.56242753  0.80498132     0.03540
C2348       C  0.99916201  0.55593940  0.76090692    -0.04330
C2349       C  0.51195457  0.57804195  0.72009041    -0.01430
C2350       C  0.51188137  0.60567007  0.72399446     0.03540
C2351       C  0.96934759  0.59524801  0.85080708     0.38190
C2352       C  0.52378357  0.57257171  0.67182051     0.38180
C2353       C  0.52684064  0.62878613  0.68372630     0.36600
C2354       C  0.97576249  0.54305697  0.85110546     0.36610
N2355       N  0.53906046  0.64712474  0.65169685    -0.38210
N2356       N  0.96895197  0.52965769  0.89044924    -0.38220
N2357       N  0.53258187  0.56996046  0.63102207    -0.37660
N2358       N  0.95743155  0.59989597  0.88569176    -0.37660
C2359       C  0.61357506  0.61380533  0.75819086    -0.04330
C2360       C  0.60739295  0.59243833  0.71791199    -0.01450
C2361       C  0.57935542  0.56515203  0.71661103     0.03540
C2362       C  0.55841082  0.55698918  0.75929854    -0.04330
C2363       C  0.56616570  0.57810032  0.80176831    -0.01430
C2364       C  0.59267437  0.60679556  0.79955240     0.03540
C2365       C  0.63020361  0.59841575  0.67785541     0.38190
C2366       C  0.54851930  0.57062641  0.84986475     0.38180
C2367       C  0.59834385  0.62935739  0.83991312     0.36600
C2368       C  0.57148772  0.54755103  0.66827086     0.36610
N2369       N  0.60238172  0.64727159  0.87191610    -0.38210
N2370       N  0.56611071  0.53571910  0.62734625    -0.38220
N2371       N  0.53672785  0.56639172  0.89062568    -0.37660
N2372       N  0.64853680  0.60282561  0.64644335    -0.37660
C2373       C  0.94309334  0.94007215  0.75372833    -0.04330
C2374       C  0.92223758  0.93079197  0.71028001    -0.01450
C2375       C  0.89508568  0.90261219  0.71106453     0.03540
C2376       C  0.88833795  0.88306235  0.75454230    -0.04330
C2377       C  0.90868821  0.89171934  0.79762813    -0.01430
C2378       C  0.93565027  0.92005538  0.79766392     0.03540
C2379       C  0.92844614  0.94886590  0.66288331     0.38190
C2380       C  0.90167054  0.87132429  0.84232545     0.38180
C2381       C  0.95403130  0.92912862  0.84545410     0.36600
C2382       C  0.87372541  0.89363584  0.66693077     0.36610
N2383       N  0.96678405  0.93564266  0.88569996    -0.38210
N2384       N  0.85669352  0.88641984  0.63183398    -0.38220
N2385       N  0.89601878  0.85502331  0.87787406    -0.37660
N2386       N  0.93169181  0.96099697  0.62263628    -0.37660
C2387       C  0.94199571  0.99791240  0.75237140    -0.04330
C2388       C  0.91963078  0.98421305  0.79264026    -0.01450
C2389       C  0.89129214  0.98304117  0.78786134     0.03540
C2390       C  0.88603646  0.99838101  0.74646768    -0.04330
C2391       C  0.90811591  0.51284581  0.70718763    -0.01430
C2392       C  0.93523430  0.51134472  0.70856517     0.03540
C2393       C  0.92550384  0.97299493  0.84141550     0.38190
C2394       C  0.90282992  0.52923473  0.66505872     0.38180
C2395       C  0.95438485  0.52139150  0.66214743     0.36600
C2396       C  0.86719891  0.96564473  0.82547227     0.36610
N2397       N  0.96755026  0.52817006  0.62257688    -0.38210
N2398       N  0.84792199  0.95129349  0.85494271    -0.38220
N2399       N  0.89888167  0.54257080  0.63165276    -0.37660
N2400       N  0.92825037  0.96465608  0.88269712    -0.37660
C2401       C  0.55957013  0.49957816  0.76027595    -0.04330
C2402       C  0.57853410  0.51183433  0.80583767    -0.01450
C2403       C  0.60792528  0.51512020  0.80745917     0.03540
C2404       C  0.61849443  0.00521178  0.76473571    -0.04330
C2405       C  0.59953102  0.99170020  0.72047999    -0.01430
C2406       C  0.57050163  0.98924685  0.71771001     0.03540
C2407       C  0.56748699  0.51915321  0.85326427     0.38190
C2408       C  0.61004700  0.98026623  0.67736889     0.38180
C2409       C  0.55363709  0.97794294  0.66873917     0.36600
C2410       C  0.62754269  0.52896918  0.85320113     0.36610
N2411       N  0.54280544  0.96983685  0.62722987    -0.38210
N2412       N  0.64321638  0.54000529  0.88959665    -0.38220
N2413       N  0.61838728  0.97117490  0.64300683    -0.37660
N2414       N  0.55941253  0.52375948  0.89325120    -0.37660
C2415       C  0.00131255  0.94062888  0.75027398    -0.04330
C2416       C  0.48845974  0.92139214  0.70528627    -0.01450
C2417       C  0.48496478  0.89202418  0.70443210     0.03540
C2418       C  0.99657215  0.88227545  0.74612209    -0.04330
C2419       C  0.01207356  0.90218492  0.78821624    -0.01430
C2420       C  0.01301362  0.93032732  0.79194960     0.03540
C2421       C  0.48084668  0.93211321  0.65758585     0.38190
C2422       C  0.02835413  0.89429728  0.82696709     0.38180
C2423       C  0.02423550  0.94677406  0.84115549     0.36600
C2424       C  0.46972180  0.87185041  0.66012561     0.36610
N2425       N  0.03242444  0.95718238  0.88285439    -0.38210
N2426       N  0.45755066  0.85574264  0.62484169    -0.38220
N2427       N  0.04221322  0.88893054  0.85746262    -0.37660
N2428       N  0.47599591  0.93992514  0.61737338    -0.37660
C2429       C  0.67438293  0.71767663  0.68049061    -0.04330
C2430       C  0.66439560  0.70965973  0.62736189    -0.01450
C2431       C  0.66381396  0.73103305  0.59252807     0.03540
C2432       C  0.67408332  0.76101513  0.60966284    -0.04330
C2433       C  0.68589981  0.76969622  0.66141444    -0.01430
C2434       C  0.68600399  0.74817422  0.69680639     0.03540
C2435       C  0.65561271  0.67966225  0.60736643     0.38190
C2436       C  0.69696577  0.80054048  0.67893735     0.38180
C2437       C  0.69796180  0.75761108  0.75001430     0.36600
C2438       C  0.65313242  0.72215608  0.53836334     0.36610
N2439       N  0.70808177  0.76503922  0.79216585    -0.38210
N2440       N  0.64448330  0.71493710  0.49536254    -0.38220
N2441       N  0.70583750  0.82516355  0.69293442    -0.37660
N2442       N  0.64846973  0.65588615  0.59057998    -0.37660
C2443       C  0.53850039  0.81699877  0.68748785    -0.04330
C2444       C  0.53159136  0.79331049  0.65125648    -0.01450
C2445       C  0.55469281  0.79389041  0.61908947     0.03540
C2446       C  0.58413548  0.81985040  0.61836114    -0.04330
C2447       C  0.59119695  0.84286690  0.65645417    -0.01430
C2448       C  0.56898930  0.84033899  0.69287023     0.03540
C2449       C  0.50054050  0.76917913  0.64420900     0.38190
C2450       C  0.62101611  0.86956754  0.65720112     0.38180
C2451       C  0.57714287  0.86135814  0.73681195     0.36600
C2452       C  0.54754142  0.76804757  0.58556780     0.36610
N2453       N  0.58220302  0.87707524  0.77308532    -0.38210
N2454       N  0.54204803  0.74737480  0.55908252    -0.38220
N2455       N  0.64475500  0.89098078  0.65534701    -0.37660
N2456       N  0.97602090  0.74972150  0.63678068    -0.37660
C2457       C  0.73612774  0.91335989  0.61351001    -0.04330
C2458       C  0.76387095  0.93628137  0.59258719    -0.01450
C2459       C  0.78507367  0.95942732  0.62555996     0.03540
C2460       C  0.77999520  0.95861184  0.68065271    -0.04330
C2461       C  0.75235533  0.93561808  0.70188684    -0.01430
C2462       C  0.73032105  0.91314479  0.66825239     0.03540
C2463       C  0.77153398  0.93533893  0.53748528     0.38190
C2464       C  0.74727530  0.93432102  0.75857081     0.38180
C2465       C  0.70295695  0.88852927  0.69067962     0.36600
C2466       C  0.81224267  0.98419378  0.60251707     0.36610
N2467       N  0.68137017  0.86876247  0.70914815    -0.38210
N2468       N  0.83374645  0.00391617  0.58377116    -0.38220
N2469       N  0.74356194  0.93355276  0.80388319    -0.37660
N2470       N  0.77837964  0.93443088  0.49412065    -0.37660
C2471       C  0.95238160  0.67003314  0.69116423    -0.04330
C2472       C  0.92221075  0.66094209  0.70624296    -0.01450
C2473       C  0.90107292  0.65999753  0.66822076     0.03540
C2474       C  0.91013015  0.66816835  0.61506749    -0.04330
C2475       C  0.93953657  0.67469126  0.59947949    -0.01430
C2476       C  0.96077666  0.67629981  0.63753793     0.03540
C2477       C  0.91270568  0.65106305  0.76020900     0.38190
C2478       C  0.94674163  0.67578495  0.54376626     0.38180
C2479       C  0.99071835  0.68234080  0.62104752     0.36600
C2480       C  0.86962325  0.64880925  0.68290486     0.36610
N2481       N  0.51449579  0.68677843  0.60808026    -0.38210
N2482       N  0.84439381  0.63946867  0.69429653    -0.38220
N2483       N  0.95264910  0.67527158  0.49971142    -0.37660
N2484       N  0.90539989  0.64285009  0.80323030    -0.37660
C2485       C  0.72380611  0.55126318  0.69229014    -0.04330
C2486       C  0.73679789  0.54025125  0.65492613    -0.01450
C2487       C  0.75690775  0.55971832  0.61595892     0.03540
C2488       C  0.76297734  0.59008139  0.61206248    -0.04330
C2489       C  0.74999055  0.60092598  0.65004323    -0.01430
C2490       C  0.73140554  0.58197184  0.69070905     0.03540
C2491       C  0.72867414  0.50854513  0.65498903     0.38190
C2492       C  0.75514186  0.63157418  0.64719665     0.38180
C2493       C  0.72010462  0.59427333  0.73114120     0.36600
C2494       C  0.77037656  0.54779910  0.57907726     0.36610
N2495       N  0.71105416  0.60410014  0.76313512    -0.38210
N2496       N  0.78106687  0.53813685  0.54993607    -0.38220
N2497       N  0.75884998  0.65582613  0.64332622    -0.37660
N2498       N  0.72233000  0.48332011  0.65499928    -0.37660
C2499       C  0.82235142  0.73350944  0.61761839    -0.04330
C2500       C  0.80600846  0.74889321  0.60600783    -0.01450
C2501       C  0.80688444  0.77072472  0.64167490     0.03540
C2502       C  0.82371944  0.77707032  0.68933999    -0.04330
C2503       C  0.83824158  0.76031782  0.70264969    -0.01430
C2504       C  0.83727114  0.73843605  0.66715603     0.03540
C2505       C  0.78925117  0.74331478  0.55652544     0.38190
C2506       C  0.85429672  0.76572805  0.75288004     0.38180
C2507       C  0.85052469  0.72002314  0.68254610     0.36600
C2508       C  0.79148408  0.78759563  0.62835992     0.36610
N2509       N  0.86059823  0.70488366  0.69506105    -0.38210
N2510       N  0.77924809  0.80110018  0.61781313    -0.38220
N2511       N  0.86708708  0.77006394  0.79293739    -0.37660
N2512       N  0.77585391  0.73892307  0.51711731    -0.37660
C2513       C  0.54837811  0.82943674  0.30306477    -0.04330
C2514       C  0.58014340  0.84584510  0.29534720    -0.01450
C2515       C  0.59993098  0.84461561  0.33376837     0.03540
C2516       C  0.58809676  0.82774201  0.38082948    -0.04330
C2517       C  0.55625740  0.81126891  0.38812477    -0.01430
C2518       C  0.53650253  0.81185732  0.34918622     0.03540
C2519       C  0.59243507  0.86424139  0.24821006     0.38190
C2520       C  0.54361026  0.79525210  0.43711779     0.38180
C2521       C  0.50384691  0.79569639  0.35775320     0.36600
C2522       C  0.63244628  0.86030678  0.32449397     0.36610
N2523       N  0.97775459  0.78312236  0.36361907    -0.38210
N2524       N  0.65839291  0.87260775  0.31712152    -0.38220
N2525       N  0.53281964  0.78242861  0.47592622    -0.37660
N2526       N  0.60225909  0.87906723  0.21078348    -0.37660
C2527       C  0.82657528  0.74326538  0.39572516    -0.04330
C2528       C  0.81486867  0.73688393  0.34347071    -0.01450
C2529       C  0.81454324  0.75978646  0.31232788     0.03540
C2530       C  0.82185464  0.78793421  0.33529656    -0.04330
C2531       C  0.83057033  0.79311426  0.38940770    -0.01430
C2532       C  0.83495678  0.77182192  0.41819475     0.03540
C2533       C  0.80308589  0.70690795  0.32125589     0.38190
C2534       C  0.83469862  0.82023214  0.41602178     0.38180
C2535       C  0.84787020  0.77945358  0.47127022     0.36600
C2536       C  0.80872047  0.75497295  0.25594317     0.36610
N2537       N  0.85864217  0.78593024  0.51317641    -0.38210
N2538       N  0.80460551  0.75157064  0.21075070    -0.38220
N2539       N  0.83792000  0.84174101  0.43749317    -0.37660
N2540       N  0.79264227  0.68299067  0.30290863    -0.37660
C2541       C  0.95732473  0.68066549  0.31025836    -0.04330
C2542       C  0.96654229  0.70091057  0.35348216    -0.01450
C2543       C  0.94458673  0.70133175  0.38733915     0.03540
C2544       C  0.91351975  0.67907775  0.38185103    -0.04330
C2545       C  0.90451385  0.65853095  0.33884186    -0.01430
C2546       C  0.92613271  0.66041908  0.30176258     0.03540
C2547       C  0.99856941  0.71888949  0.36656482     0.38190
C2548       C  0.87329261  0.63452083  0.33426047     0.38180
C2549       C  0.91680856  0.64115664  0.25513123     0.36600
C2550       C  0.95436201  0.72319032  0.43027394     0.36610
N2551       N  0.91082233  0.62649825  0.21718272    -0.38210
N2552       N  0.96195893  0.74044879  0.46477401    -0.38220
N2553       N  0.84846824  0.61486495  0.33270780    -0.37660
N2554       N  0.52402793  0.73244072  0.37824026    -0.37660
C2555       C  0.67512994  0.76347617  0.38502133    -0.04330
C2556       C  0.69700681  0.75402775  0.39380376    -0.01450
C2557       C  0.69816132  0.73262429  0.35981755     0.03540
C2558       C  0.67702251  0.71984857  0.31789797    -0.04330
C2559       C  0.65632424  0.73033861  0.30729716    -0.01430
C2560       C  0.65562068  0.75229397  0.34033996     0.03540
C2561       C  0.71770769  0.76523033  0.43884754     0.38190
C2562       C  0.63528044  0.71805200  0.26284242     0.38180
C2563       C  0.63496118  0.76356164  0.32792812     0.36600
C2564       C  0.72041570  0.72289903  0.36925598     0.36610
N2565       N  0.61863548  0.77278502  0.31834500    -0.38210
N2566       N  0.73829678  0.71531827  0.37658619    -0.38220
N2567       N  0.61836648  0.70811328  0.22765414    -0.37660
N2568       N  0.73430933  0.77414268  0.47460732    -0.37660
C2569       C  0.76421860  0.58893714  0.37729046    -0.04330
C2570       C  0.73916071  0.56223772  0.39668205    -0.01450
C2571       C  0.71881660  0.54006919  0.36128438     0.03540
C2572       C  0.72198179  0.54536434  0.30629742    -0.04330
C2573       C  0.74776529  0.57127585  0.28659186    -0.01430
C2574       C  0.76879077  0.59320008  0.32206765     0.03540
C2575       C  0.73329564  0.55800155  0.45312211     0.38190
C2576       C  0.75292066  0.57511707  0.22997156     0.38180
C2577       C  0.79437002  0.62039278  0.30140280     0.36600
C2578       C  0.69552256  0.51110848  0.38138752     0.36610
N2579       N  0.81473285  0.64178992  0.28375046    -0.38210
N2580       N  0.67765057  0.48778105  0.39778778    -0.38220
N2581       N  0.75750604  0.57796440  0.18489131    -0.37660
N2582       N  0.72769140  0.55439443  0.49781738    -0.37660
C2583       C  0.77314076  0.94859152  0.30440266    -0.04330
C2584       C  0.75841096  0.91693893  0.29736692    -0.01450
C2585       C  0.73732555  0.89760933  0.33525016     0.03540
C2586       C  0.73156605  0.90967248  0.38150737    -0.04330
C2587       C  0.74469236  0.94145549  0.38654453    -0.01430
C2588       C  0.76555872  0.96081362  0.34828422     0.03540
C2589       C  0.76493766  0.90428684  0.25096572     0.38190
C2590       C  0.73755344  0.95446325  0.43171260     0.38180
C2591       C  0.78012792  0.99338182  0.35518708     0.36600
C2592       C  0.72016006  0.86532304  0.32523381     0.36610
N2593       N  0.79172730  0.51934869  0.36064922    -0.38210
N2594       N  0.70571698  0.83961341  0.31726250    -0.38220
N2595       N  0.73191629  0.96492993  0.46766387    -0.37660
N2596       N  0.77025077  0.89431794  0.21393277    -0.37660
C2597       C  0.55659506  0.55881844  0.25997909    -0.04330
C2598       C  0.57358955  0.56532309  0.30808089    -0.01450
C2599       C  0.60219150  0.59171101  0.31305834     0.03540
C2600       C  0.61403645  0.61188184  0.27046407    -0.04330
C2601       C  0.59712306  0.60628343  0.22327341    -0.01430
C2602       C  0.56866472  0.57997901  0.21784041     0.03540
C2603       C  0.56119803  0.54647679  0.35443782     0.38190
C2604       C  0.60918495  0.62792670  0.17992204     0.38180
C2605       C  0.55305196  0.57525864  0.16761498     0.36600
C2606       C  0.61946539  0.59833749  0.36215919     0.36610
N2607       N  0.54308497  0.57358664  0.12556149    -0.38210
N2608       N  0.63320676  0.60370312  0.40134209    -0.38220
N2609       N  0.61887985  0.64512652  0.14547148    -0.37660
N2610       N  0.55202289  0.53335473  0.39369655    -0.37660
C2611       C  0.99890466  0.56057431  0.25014561    -0.04330
C2612       C  0.50967377  0.58103942  0.29386899    -0.01450
C2613       C  0.51180186  0.60981355  0.29045742     0.03540
C2614       C  0.00133801  0.61807262  0.24505381    -0.04330
C2615       C  0.98928373  0.59754302  0.20252360    -0.01430
C2616       C  0.98914557  0.56965843  0.20405233     0.03540
C2617       C  0.51638069  0.57248064  0.34467407     0.38190
C2618       C  0.97577715  0.60446795  0.15754891     0.38180
C2619       C  0.98111100  0.55207548  0.15571338     0.36600
C2620       C  0.52446590  0.63101070  0.33440018     0.36610
N2621       N  0.97607956  0.54066129  0.11444968    -0.38210
N2622       N  0.53450172  0.64791902  0.36934787    -0.38220
N2623       N  0.96431258  0.60906197  0.12163782    -0.37660
N2624       N  0.52063239  0.56738400  0.38761794    -0.37660
C2625       C  0.61439624  0.50326381  0.24359262    -0.04330
C2626       C  0.60297593  0.01129098  0.19910021    -0.01450
C2627       C  0.57507244  0.01137614  0.20179813     0.03540
C2628       C  0.55703045  0.50175343  0.24835415    -0.04330
C2629       C  0.56827146  0.49258245  0.29230841    -0.01430
C2630       C  0.59711786  0.49442341  0.29044140     0.03540
C2631       C  0.62011638  0.01995951  0.15013880     0.38190
C2632       C  0.55113268  0.48159266  0.34074662     0.38180
C2633       C  0.60889274  0.48701423  0.33731803     0.36600
C2634       C  0.56504690  0.02041354  0.15488851     0.36610
N2635       N  0.61775682  0.48129343  0.37553779    -0.38210
N2636       N  0.55847754  0.02707241  0.11509857    -0.38220
N2637       N  0.53969435  0.47307738  0.38152273    -0.37660
N2638       N  0.63310701  0.02685592  0.11042504    -0.37660
C2639       C  0.99908639  0.94406886  0.24558537    -0.04330
C2640       C  0.50802481  0.93576497  0.19784672    -0.01450
C2641       C  0.50883954  0.90841486  0.19426929     0.03540
C2642       C  0.00091069  0.88891611  0.23804778    -0.04330
C2643       C  0.99149745  0.89647932  0.28525936    -0.01430
C2644       C  0.99032586  0.92363565  0.28905571     0.03540
C2645       C  0.51347494  0.95332858  0.14995957     0.38190
C2646       C  0.98287442  0.87602977  0.33025849     0.38180
C2647       C  0.98079356  0.93008923  0.33897515     0.36600
C2648       C  0.51776371  0.90013898  0.14515183     0.36610
N2649       N  0.97373408  0.93349829  0.38083833    -0.38210
N2650       N  0.52471845  0.89340518  0.10600104    -0.38220
N2651       N  0.97612386  0.85977211  0.36609541    -0.37660
N2652       N  0.51613711  0.96490409  0.10929429    -0.37660
C2653       C  0.94095504  0.94515776  0.25740906    -0.04330
C2654       C  0.92924025  0.92182471  0.21848144    -0.01450
C2655       C  0.90200771  0.89483652  0.22758399     0.03540
C2656       C  0.88354236  0.89264734  0.27051029    -0.04330
C2657       C  0.89450882  0.91533487  0.30943468    -0.01430
C2658       C  0.92384141  0.94059750  0.30448919     0.03540
C2659       C  0.94287757  0.92489129  0.16711772     0.38190
C2660       C  0.87598350  0.91217135  0.35531579     0.38180
C2661       C  0.93711353  0.96017565  0.35004184     0.36600
C2662       C  0.89358504  0.86859213  0.19398610     0.36610
N2663       N  0.94756880  0.97424927  0.38817500    -0.38210
N2664       N  0.88736054  0.84751701  0.16808364    -0.38220
N2665       N  0.86122402  0.90973609  0.39189052    -0.37660
N2666       N  0.95049164  0.92455474  0.12407365    -0.37660
C2667       C  0.87990135  0.99375290  0.23698565    -0.04330
C2668       C  0.89181362  0.98482078  0.19485647    -0.01450
C2669       C  0.92156875  0.98892042  0.19809802     0.03540
C2670       C  0.93995510  0.50168403  0.24417629    -0.04330
C2671       C  0.92781827  0.51142412  0.28578379    -0.01430
C2672       C  0.89812450  0.50747242  0.28195920     0.03540
C2673       C  0.87318743  0.97111449  0.14803070     0.38190
C2674       C  0.94430237  0.52425211  0.33449368     0.38180
C2675       C  0.88616169  0.51773315  0.32463664     0.36600
C2676       C  0.93337840  0.98124738  0.15211823     0.36610
N2677       N  0.87659023  0.52584119  0.35859630    -0.38210
N2678       N  0.94211610  0.97600443  0.11345617    -0.38220
N2679       N  0.95464982  0.53387805  0.37572965    -0.37660
N2680       N  0.85831367  0.96022278  0.11072834    -0.37660
C2681       C  0.82498773  0.54261021  0.81700862    -0.04330
C2682       C  0.81719734  0.56414461  0.79810508    -0.01450
C2683       C  0.81700876  0.58571139  0.83308805     0.03540
C2684       C  0.82700043  0.58736527  0.88592213    -0.04330
C2685       C  0.83477494  0.56592284  0.90485414    -0.01430
C2686       C  0.83267367  0.54298479  0.87112774     0.03540
C2687       C  0.81112967  0.56524001  0.74219549     0.38190
C2688       C  0.84460625  0.56715130  0.95950182     0.38180
C2689       C  0.83802111  0.51952415  0.89275260     0.36600
C2690       C  0.80681047  0.60627522  0.81461595     0.36610
N2691       N  0.84228829  0.50100583  0.91085827    -0.38210
N2692       N  0.79827019  0.62235492  0.79975790    -0.38220
N2693       N  0.85268244  0.56808728  0.00283160    -0.37660
N2694       N  0.80679520  0.56616196  0.69735149    -0.37660
C2695       C  0.81279368  0.53290858  0.17172058    -0.04330
C2696       C  0.82980024  0.56325396  0.18873185    -0.01450
C2697       C  0.83040091  0.58672237  0.15785851     0.03540
C2698       C  0.81435666  0.57991124  0.10924443    -0.04330
C2699       C  0.79546582  0.54926162  0.09435455    -0.01430
C2700       C  0.79458762  0.52581655  0.12575153     0.03540
C2701       C  0.84711336  0.56976711  0.23763779     0.38190
C2702       C  0.77819000  0.54181122  0.04528095     0.38180
C2703       C  0.77601097  0.49446232  0.10974781     0.36600
C2704       C  0.84694700  0.61778998  0.17624219     0.36610
N2705       N  0.76119982  0.96935514  0.09750672    -0.38210
N2706       N  0.85981721  0.64268791  0.19051606    -0.38220
N2707       N  0.76439869  0.53580878  0.00611703    -0.37660
N2708       N  0.86071539  0.57316570  0.27649221    -0.37660
C2709       C  0.76309176  0.68001003  0.89182351    -0.04330
C2710       C  0.73601137  0.67762021  0.91200288    -0.01450
C2711       C  0.71458335  0.67858622  0.87742952     0.03540
C2712       C  0.71977794  0.68138896  0.82227528    -0.04330
C2713       C  0.74837651  0.68725192  0.80290188    -0.01430
C2714       C  0.76974266  0.68593289  0.83751229     0.03540
C2715       C  0.72951205  0.67330636  0.96821070     0.38190
C2716       C  0.75620075  0.69562733  0.74802692     0.38180
C2717       C  0.79848420  0.69061496  0.81730611     0.36600
C2718       C  0.68757364  0.67769401  0.89895079     0.36610
N2719       N  0.82144508  0.69444466  0.80097698    -0.38210
N2720       N  0.66634411  0.67735942  0.91668739    -0.38220
N2721       N  0.76250046  0.70353831  0.70465916    -0.37660
N2722       N  0.72336878  0.66979404  0.01269582    -0.37660
C2723       C  0.91132702  0.73711982  0.89631544    -0.04330
C2724       C  0.93428825  0.76564544  0.91408032    -0.01450
C2725       C  0.95622372  0.78595692  0.87840136     0.03540
C2726       C  0.95434495  0.77866952  0.82388281    -0.04330
C2727       C  0.93146518  0.74983469  0.80637513    -0.01430
C2728       C  0.91040089  0.72893331  0.84273618     0.03540
C2729       C  0.93519838  0.77429765  0.96919535     0.38190
C2730       C  0.92881950  0.74200819  0.75072595     0.38180
C2731       C  0.88727275  0.69925604  0.82496351     0.36600
C2732       C  0.98116814  0.81394898  0.89862576     0.36610
N2733       N  0.86876556  0.67549031  0.81112702    -0.38210
N2734       N  0.50090992  0.83585766  0.91644948    -0.38220
N2735       N  0.92654307  0.73571319  0.70627490    -0.37660
N2736       N  0.93589819  0.78151879  0.01289691    -0.37660
C2737       C  0.71285306  0.66990167  0.18117474    -0.04330
C2738       C  0.73641432  0.69750566  0.15969588    -0.01450
C2739       C  0.75885090  0.69742076  0.12624360     0.03540
C2740       C  0.75807503  0.66989362  0.11330555    -0.04330
C2741       C  0.73208546  0.64246878  0.12815562    -0.01430
C2742       C  0.70820800  0.64303487  0.15531712     0.03540
C2743       C  0.73481105  0.72519801  0.16259258     0.38190
C2744       C  0.72809988  0.61322064  0.11227183     0.38180
C2745       C  0.67775280  0.61854880  0.14342856     0.36600
C2746       C  0.78084168  0.72546815  0.10097506     0.36610
N2747       N  0.65364222  0.59901428  0.13313057    -0.38210
N2748       N  0.79817902  0.74781157  0.08070241    -0.38220
N2749       N  0.72436296  0.58982024  0.09901491    -0.37660
N2750       N  0.73375790  0.74744324  0.16377091    -0.37660
C2751       C  0.95880984  0.78073158  0.18020302    -0.04330
C2752       C  0.92788237  0.76802599  0.19468816    -0.01450
C2753       C  0.90505472  0.74375372  0.16523986     0.03540
C2754       C  0.91296358  0.73172817  0.12157116    -0.04330
C2755       C  0.94402729  0.74273192  0.10988352    -0.01430
C2756       C  0.96685445  0.76728499  0.13884280     0.03540
C2757       C  0.91951809  0.77980704  0.24012604     0.38190
C2758       C  0.95254331  0.73028198  0.06559995     0.38180
C2759       C  0.99853916  0.77968000  0.12412636     0.36600
C2760       C  0.87333609  0.73099957  0.17992817     0.36610
N2761       N  0.52379173  0.78952515  0.11238110    -0.38210
N2762       N  0.84803403  0.72068229  0.19168734    -0.38220
N2763       N  0.95940629  0.72048349  0.03021620    -0.37660
N2764       N  0.91284238  0.78916582  0.27639567    -0.37660
C2765       C  0.58910049  0.76695806  0.87819091    -0.04330
C2766       C  0.59671949  0.75121254  0.84069545    -0.01450
C2767       C  0.57397580  0.72844349  0.80864109     0.03540
C2768       C  0.54304495  0.72049135  0.81478453    -0.04330
C2769       C  0.53565246  0.73761855  0.84982501    -0.01430
C2770       C  0.55859595  0.76095426  0.88088236     0.03540
C2771       C  0.62813970  0.75853637  0.83513794     0.38190
C2772       C  0.50418632  0.73018106  0.85648049     0.38180
C2773       C  0.55021552  0.77723940  0.91833731     0.36600
C2774       C  0.58255736  0.71323306  0.76925133     0.36610
N2775       N  0.54344479  0.79016626  0.94814985    -0.38210
N2776       N  0.58950936  0.70113880  0.73799524    -0.38220
N2777       N  0.97913034  0.72434096  0.86183229    -0.37660
N2778       N  0.65331635  0.76460858  0.83139560    -0.37660
C2779       C  0.53920443  0.72274027  0.17087131    -0.04330
C2780       C  0.53843432  0.71661347  0.11609307    -0.01450
C2781       C  0.56124246  0.73751395  0.08235876     0.03540
C2782       C  0.58410007  0.76551352  0.10241935    -0.04330
C2783       C  0.58331730  0.77303206  0.15586671    -0.01430
C2784       C  0.56083744  0.75177841  0.19002307     0.03540
C2785       C  0.51330401  0.68952380  0.09357013     0.38190
C2786       C  0.60619742  0.80225760  0.17605251     0.38180
C2787       C  0.56008122  0.76009284  0.24457829     0.36600
C2788       C  0.56146078  0.72979189  0.02703650     0.36610
N2789       N  0.55939705  0.76737019  0.28771162    -0.38210
N2790       N  0.56144936  0.72310001  0.98321480    -0.38220
N2791       N  0.62445922  0.82552097  0.19235180    -0.37660
N2792       N  0.99318474  0.66849883  0.07421814    -0.37660
C2793       C  0.68514741  0.91863707  0.88284885    -0.04330
C2794       C  0.66642933  0.91239328  0.83759397    -0.01450
C2795       C  0.66740382  0.93641633  0.80816143     0.03540
C2796       C  0.68673032  0.96665021  0.82404974    -0.04330
C2797       C  0.70753960  0.97301478  0.86590755    -0.01430
C2798       C  0.70678423  0.94905879  0.89541308     0.03540
C2799       C  0.64647369  0.88134064  0.82129484     0.38190
C2800       C  0.72883557  0.00419577  0.87966300     0.38180
C2801       C  0.72705809  0.95592126  0.94057399     0.36600
C2802       C  0.64837163  0.93070898  0.76164451     0.36610
N2803       N  0.74326656  0.96147056  0.97656394    -0.38210
N2804       N  0.63374583  0.92837027  0.72463275    -0.38220
N2805       N  0.74582106  0.52920619  0.88979473    -0.37660
N2806       N  0.63077418  0.85646405  0.80851322    -0.37660
C2807       C  0.78223600  0.82159567  0.82054806    -0.04330
C2808       C  0.76612106  0.83656295  0.80534393    -0.01450
C2809       C  0.74414604  0.83663315  0.83947758     0.03540
C2810       C  0.73842634  0.82203722  0.88909013    -0.04330
C2811       C  0.75392781  0.80634448  0.90365310    -0.01430
C2812       C  0.77578483  0.80611190  0.86939466     0.03540
C2813       C  0.77249145  0.85218006  0.75484659     0.38190
C2814       C  0.74849655  0.79172196  0.95502382     0.38180
C2815       C  0.79264989  0.79110737  0.88538545     0.36600
C2816       C  0.72708971  0.85141381  0.82359299     0.36610
N2817       N  0.80620236  0.77923821  0.89810653    -0.38210
N2818       N  0.71310869  0.86290749  0.81143254    -0.38220
N2819       N  0.74427488  0.78019554  0.99609729    -0.37660
N2820       N  0.77773237  0.86466138  0.71458136    -0.37660
C2821       C  0.67904365  0.96233973  0.17070556    -0.04330
C2822       C  0.67467033  0.96325148  0.11566162    -0.01450
C2823       C  0.67159471  0.93953105  0.08304065     0.03540
C2824       C  0.67597728  0.91626764  0.10429319    -0.04330
C2825       C  0.68355870  0.91691373  0.15836719    -0.01430
C2826       C  0.68446656  0.93961061  0.19188683     0.03540
C2827       C  0.67544736  0.98961073  0.09190214     0.38190
C2828       C  0.68978832  0.89396208  0.17951093     0.38180
C2829       C  0.69081990  0.93956519  0.24799300     0.36600
C2830       C  0.66346208  0.93897695  0.02760209     0.36610
N2831       N  0.69612347  0.94003143  0.29277249    -0.38210
N2832       N  0.65642625  0.93862179  0.98376881    -0.38220
N2833       N  0.69485589  0.87567566  0.19624846    -0.37660
N2834       N  0.67708407  0.01086670  0.07194112    -0.37660
C2835       C  0.78001172  0.83017307  0.19489761    -0.04330
C2836       C  0.74866891  0.81677552  0.20734123    -0.01450
C2837       C  0.72733238  0.81474951  0.16864143     0.03540
C2838       C  0.73733004  0.82710742  0.11779255    -0.04330
C2839       C  0.76840670  0.84010422  0.10493879    -0.01430
C2840       C  0.78946320  0.84099722  0.14261308     0.03540
C2841       C  0.73857203  0.80636590  0.26066990     0.38190
C2842       C  0.77892755  0.85281749  0.05246958     0.38180
C2843       C  0.82083994  0.85313643  0.12635517     0.36600
C2844       C  0.69534015  0.80108992  0.18178475     0.36610
N2845       N  0.84558625  0.86338130  0.11147932    -0.38210
N2846       N  0.66980507  0.79010349  0.19231939    -0.38220
N2847       N  0.78746539  0.86316909  0.01094761    -0.37660
N2848       N  0.73117711  0.79824633  0.30361766    -0.37660
loop_ 
_geom_bond_atom_site_label_1 
_geom_bond_atom_site_label_2 
_geom_bond_distance 
_geom_bond_site_symmetry_2 
_ccdc_geom_bond_type 
Fe1          O17   2.082       .  S
Fe1           O7   2.065       .  S
Fe1          O14   2.055   1_556  S
Fe1           O6   2.083   1_556  S
Fe1          O12   1.978       .  S
Fe2           O5   2.075       .  S
Fe2           O9   2.061       .  S
Fe2          O13   2.076   1_556  S
Fe2          O18   2.060   1_556  S
Fe2          O12   1.975       .  S
Fe3          O21   2.051       .  S
Fe3           O8   2.066   1_556  S
Fe3          O15   2.066       .  S
Fe3           O4   2.045   1_556  S
Fe3          O12   1.974       .  S
O4           C11   1.265       .  A
O5           C19   1.271       .  A
O6           C11   1.271       .  A
O7           C10   1.268       .  A
O8           C20   1.268       .  A
O9           C22   1.269       .  A
C10          O15   1.269       .  A
C10         C674   1.480       .  S
C11         C702   1.481       .  S
O13          C16   1.269       .  A
O14          C16   1.266       .  A
C16         C646   1.477       .  S
O17          C22   1.274       .  A
O18          C20   1.268       .  A
C19          O21   1.265       .  A
C19         C657   1.483       .  S
C20         C688   1.474       .  S
C22         C629   1.494       .  S
Fe23         O39   2.064   1_554  S
Fe23         O29   2.078   1_554  S
Fe23         O36   2.058       .  S
Fe23         O28   2.063       .  S
Fe23         O34   1.967       .  S
Fe24         O27   2.060   1_554  S
Fe24         O31   2.080   1_554  S
Fe24         O35   2.067       .  S
Fe24         O40   2.080       .  S
Fe24         O34   1.966       .  S
Fe25         O43   2.054       .  S
Fe25         O30   2.068   1_556  S
Fe25         O37   2.057       .  S
Fe25         O26   2.061   1_556  S
Fe25         O34   1.967   1_556  S
O26          C33   1.269       .  A
O27          C41   1.266       .  A
O28          C33   1.269       .  A
O29          C32   1.268       .  A
O30          C42   1.272       .  A
O31          C44   1.275       .  A
C32          O37   1.266       .  A
C32         C573   1.477       .  S
C33         C604   1.498       .  S
O35          C38   1.266       .  A
O36          C38   1.265       .  A
C38         C618   1.485       .  S
O39          C44   1.273       .  A
O40          C42   1.275       .  A
C41          O43   1.263       .  A
C41         C548   1.474       .  S
C42         C562   1.487       .  S
C44         C587   1.478       .  S
C45         C475   1.525       .  S
C45          C46   1.434       .  A
C45        C1474   1.436       .  A
C46         C534   1.527       .  S
C46         C759   1.438   1_545  A
C47         C517   1.510       .  S
C47          C48   1.432       .  A
C47         C758   1.438       .  A
C48         C503   1.521       .  S
C48        C2185   1.429       .  A
C49         C492   1.522       .  S
C49          C50   1.434       .  A
C49        C2184   1.429   1_445  A
C50         C461   1.509       .  S
C50        C1469   1.436   1_455  A
C51         C559   1.486       .  S
C51          C52   1.404       .  A
C51         C768   1.402   1_545  A
C52         C765   1.400   1_545  A
C52          H57   1.084       .  S
C53         C531   1.490       .  S
C53          C54   1.404       .  A
C53         C764   1.400       .  A
C54          C55   1.406       .  A
C54          H58   1.084       .  S
C55         C447   1.488       .  S
C55          C56   1.405       .  A
C56         C763   1.402       .  A
C56          H59   1.084       .  S
C60         C685   1.485       .  S
C60          C61   1.407       .  A
C60         C777   1.401       .  A
C61          C62   1.403       .  A
C61          H66   1.084       .  S
C62        C1201   1.495       .  S
C62         C775   1.402       .  A
C63          C64   1.406       .  A
C63         C774   1.402       .  A
C63          H67   1.084       .  S
C64         C436   1.481       .  S
C64          C65   1.400       .  A
C65         C772   1.401   1_545  A
C65          H68   1.084       .  S
C69         C422   1.482       .  S
C69          C70   1.408       .  A
C69          C74   1.395       .  A
C70          C71   1.421       .  A
C70          H75   1.075       .  S
C71         C601   1.534       .  S
C71          C72   1.413       .  A
C72          C73   1.392       .  A
C72          H76   1.072       .  S
C73         C464   1.475       .  S
C73          C74   1.386       .  A
C74          H77   1.085       .  S
C78         C405   1.487       .  S
C78          C79   1.403       .  A
C78          C83   1.402       .  A
C79        C1504   1.407       .  A
C79          H84   1.083       .  S
C80         C643   1.496       .  S
C80          C81   1.412       .  A
C80        C1503   1.407   1_455  A
C81        C1506   1.404       .  A
C81          H85   1.084       .  S
C82         C478   1.493       .  S
C82          C83   1.398       .  A
C82        C1505   1.404       .  A
C83          H86   1.085       .  S
C87         C394   1.494       .  S
C87          C88   1.412       .  A
C87          C92   1.398       .  A
C88          C89   1.413       .  A
C88          H93   1.082       .  S
C89         C699   1.503       .  S
C89          C90   1.405       .  A
C90          C91   1.397       .  A
C90          H94   1.084       .  S
C91         C520   1.471       .  S
C91          C92   1.389       .  A
C92          H95   1.085       .  S
C96         C377   1.482       .  S
C96         C101   1.400       .  A
C96        C1521   1.403       .  A
C97          C98   1.403       .  A
C97        C1520   1.403       .  A
C97         H102   1.084       .  S
C98         C615   1.492       .  S
C98          C99   1.408       .  A
C99         C100   1.405       .  A
C99         H103   1.084       .  S
C100        C506   1.488       .  S
C100       C1525   1.400       .  A
C101       C1524   1.400       .  A
C101        H104   1.084       .  S
Fe105       O121   2.069       .  S
Fe105       O111   2.074       .  S
Fe105       O118   2.070       .  S
Fe105       O110   2.058       .  S
Fe105       O116   1.976       .  S
Fe106       O109   2.054       .  S
Fe106       O113   2.061       .  S
Fe106       O117   2.051       .  S
Fe106       O122   2.076       .  S
Fe106       O116   1.976       .  S
Fe107       O125   2.074       .  S
Fe107       O112   2.067       .  S
Fe107       O119   2.067       .  S
Fe107       O108   2.080       .  S
Fe107       O116   1.972       .  S
O108        C115   1.269       .  A
O109        C123   1.266       .  A
O110        C115   1.263       .  A
O111        C114   1.274       .  A
O112        C124   1.272       .  A
O113        C126   1.266       .  A
C114        O119   1.271       .  A
C114        C408   1.492       .  S
C115        C338   1.484       .  S
O117        C120   1.269       .  A
O118        C120   1.270       .  A
C120        C352   1.499       .  S
O121        C126   1.267       .  A
O122        C124   1.271       .  A
C123        O125   1.271       .  A
C123        C391   1.484       .  S
C124        C363   1.493       .  S
C126        C433   1.477       .  S
Fe127       O143   2.056       .  S
Fe127       O133   2.070       .  S
Fe127       O140   2.063       .  S
Fe127       O132   2.054       .  S
Fe127       O138   1.972       .  S
Fe128       O131   2.076       .  S
Fe128       O135   2.074       .  S
Fe128       O139   2.079       .  S
Fe128       O144   2.059       .  S
Fe128       O138   1.976       .  S
Fe129       O147   2.060       .  S
Fe129       O134   2.073       .  S
Fe129       O141   2.059       .  S
Fe129       O130   2.060       .  S
Fe129       O138   1.974       .  S
O130        C137   1.269       .  A
O131        C145   1.272       .  A
O132        C137   1.265       .  A
O133        C136   1.271       .  A
O134        C146   1.270       .  A
O135        C148   1.269       .  A
C136        O141   1.269       .  A
C136        C296   1.483       .  S
C137        C419   1.490       .  S
O139        C142   1.271       .  A
O140        C142   1.270       .  A
C142        C450   1.493       .  S
O143        C148   1.266       .  A
O144        C146   1.267       .  A
C145        O147   1.267       .  A
C145        C310   1.501       .  S
C146        C380   1.486       .  S
C148        C321   1.480       .  S
C149        C279   1.524       .  S
C149        C154   1.435       .  A
C149       C2286   1.437       .  A
C150        C265   1.518       .  S
C150        C151   1.439   1_565  A
C150       C2285   1.437       .  A
C151        C226   1.528       .  S
C151       C1576   1.434       .  A
C152        C212   1.522       .  S
C152       C1575   1.434       .  A
C152        C865   1.436   1_545  A
C153        C251   1.517       .  S
C153        C154   1.433       .  A
C153        C864   1.436       .  A
C154        C237   1.523       .  S
C155        C660   1.484       .  S
C155        C160   1.403       .  A
C155        C868   1.401       .  A
C156        C157   1.405       .  A
C156        C867   1.401   1_545  A
C156        H161   1.083       .  S
C157        C349   1.489       .  S
C157        C158   1.405       .  A
C158        C871   1.398       .  A
C158        H162   1.084       .  S
C159        C268   1.483       .  S
C159        C160   1.396       .  A
C159        C870   1.398       .  A
C160        H163   1.085       .  S
C164        C545   1.488       .  S
C164        C169   1.402       .  A
C164        C877   1.408       .  A
C165        C166   1.407       .  A
C165        C876   1.408       .  A
C165        H170   1.083       .  S
C166        C324   1.487       .  S
C166        C167   1.403       .  A
C167        C168   1.394       .  A
C167        H171   1.084       .  S
C168        C254   1.476       .  S
C168        C881   1.394       .  A
C169        C880   1.394   1_545  A
C169        H172   1.084       .  S
C173        C335   1.483       .  S
C173        C174   1.406       .  A
C173        C178   1.398       .  A
C174       C1599   1.410       .  A
C174        H179   1.083       .  S
C175        C632   1.498       .  S
C175        C176   1.408       .  A
C175       C1598   1.410   1_455  A
C176       C1601   1.400   1_455  A
C176        H180   1.084       .  S
C177        C209   1.481       .  S
C177        C178   1.396       .  A
C177       C1600   1.400       .  A
C178        H181   1.085       .  S
C182        C293   1.498       .  S
C182        C183   1.407       .  A
C182        C187   1.409       .  A
C183        C184   1.403       .  A
C183        H188   1.082       .  S
C184        C576   1.489       .  S
C184        C185   1.405       .  A
C185        C186   1.397       .  A
C185        H189   1.084       .  S
C186        C223   1.486       .  S
C186        C187   1.400       .  A
C187        H190   1.084       .  S
C191        C307   1.496       .  S
C191        C196   1.406       .  A
C191       C1616   1.408   1_455  A
C192        C193   1.410       .  A
C192       C1615   1.408       .  A
C192        H197   1.083       .  S
C193        C590   1.494       .  S
C193        C194   1.406       .  A
C194        C195   1.400       .  A
C194        H198   1.084       .  S
C195        C282   1.488       .  S
C195       C1620   1.397       .  A
C196       C1619   1.397   1_455  A
C196        H199   1.085       .  S
C200        C366   1.485       .  S
C200        C201   1.404       .  A
C200        C205   1.404       .  A
C201        C202   1.404       .  A
C201        H206   1.084       .  S
C202        C671   1.483       .  S
C202        C203   1.401       .  A
C203        C204   1.400       .  A
C203        H207   1.084       .  S
C204        C240   1.484       .  S
C204        C205   1.401       .  A
C205        H208   1.084       .  S
C209        C210   1.403       .  A
C209       C1638   1.405       .  A
C210        C211   1.413       .  A
C210        C215   1.452       .  S
C211        C212   1.426       .  A
C211        C218   1.446       .  S
C212       C1637   1.424       .  A
C213        C214   1.409       .  A
C213       C1636   1.424   1_455  A
C213        C216   1.446       .  S
C214       C1633   1.405   1_455  A
C214        C217   1.453       .  S
C215        N222   1.157       .  T
C216        N221   1.157       .  T
C217        N219   1.157       .  T
C218        N220   1.157       .  T
C223        C224   1.405       .  A
C223        C228   1.404       .  A
C224        C225   1.411       .  A
C224        C229   1.452       .  S
C225        C226   1.425       .  A
C225        C232   1.446       .  S
C226        C227   1.427       .  A
C227        C228   1.413       .  A
C227        C230   1.445       .  S
C228        C231   1.452       .  S
C229        N236   1.157       .  T
C230        N235   1.157       .  T
C231        N233   1.157       .  T
C232        N234   1.157       .  T
C237        C238   1.425       .  A
C237        C242   1.424       .  A
C238        C239   1.412       .  A
C238        C243   1.445       .  S
C239        C240   1.405       .  A
C239        C246   1.454       .  S
C240        C241   1.405       .  A
C241        C242   1.412       .  A
C241        C244   1.453       .  S
C242        C245   1.447       .  S
C243        N250   1.157       .  T
C244        N249   1.157       .  T
C245        N247   1.157       .  T
C246        N248   1.157       .  T
C251        C252   1.424       .  A
C251        C968   1.424       .  A
C252        C253   1.408       .  A
C252        C257   1.445       .  S
C253        C254   1.403       .  A
C253        C260   1.453       .  S
C254        C967   1.403       .  A
C255        C256   1.409       .  A
C255        C966   1.403   1_545  A
C255        C258   1.452       .  S
C256        C963   1.424   1_545  A
C256        C259   1.446       .  S
C257        N264   1.157       .  T
C258        N263   1.157       .  T
C259        N261   1.157       .  T
C260        N262   1.157       .  T
C265        C266   1.424   1_565  A
C265        C982   1.424       .  A
C266        C267   1.410       .  A
C266        C271   1.447       .  S
C267        C980   1.405       .  A
C267        C274   1.453       .  S
C268        C269   1.406       .  A
C268        C979   1.405       .  A
C269        C270   1.410       .  A
C269        C272   1.454       .  S
C270        C977   1.424       .  A
C270        C273   1.445       .  S
C271        N278   1.157       .  T
C272        N277   1.157       .  T
C273        N275   1.157       .  T
C274        N276   1.157       .  T
C279        C284   1.423       .  A
C279       C1704   1.426       .  A
C280        C281   1.413       .  A
C280       C1703   1.426   1_655  A
C280        C285   1.446       .  S
C281       C1706   1.405       .  A
C281        C288   1.452       .  S
C282        C283   1.406       .  A
C282       C1705   1.405       .  A
C283        C284   1.410       .  A
C283        C286   1.452       .  S
C284        C287   1.445       .  S
C285        N292   1.157       .  T
C286        N291   1.157       .  T
C287        N289   1.157       .  T
C288        N290   1.157       .  T
C293        C294   1.417       .  A
C293        C298   1.420       .  A
C294        C295   1.407       .  A
C294        C299   1.451       .  S
C295        C296   1.413       .  A
C295        C302   1.454       .  S
C296        C297   1.410       .  A
C297        C298   1.413       .  A
C297        C300   1.449       .  S
C298        C301   1.450       .  S
C299        N306   1.157       .  T
C300        N305   1.156       .  T
C301        N303   1.157       .  T
C302        N304   1.157       .  T
C307        C308   1.411       .  A
C307        C312   1.412       .  A
C308        C309   1.414       .  A
C308        C313   1.448       .  S
C309        C310   1.420       .  A
C309        C316   1.449       .  S
C310        C311   1.416       .  A
C311        C312   1.410       .  A
C311        C314   1.447       .  S
C312        C315   1.450       .  S
C313       N1744   1.156   1_455  T
C314        N319   1.156       .  T
C315        N317   1.157       .  T
C316        N318   1.157       .  T
N320       C1737   1.156       .  T
C321        C322   1.413       .  A
C321        C326   1.412       .  A
C322        C323   1.404       .  A
C322        C327   1.452       .  S
C323        C324   1.412       .  A
C323        C330   1.452       .  S
C324        C325   1.414       .  A
C325        C326   1.414       .  A
C325        C328   1.450       .  S
C326        C329   1.448       .  S
C327        N334   1.157       .  T
C328        N333   1.157       .  T
C329        N331   1.157       .  T
C330        N332   1.157       .  T
C335        C336   1.412       .  A
C335        C340   1.408       .  A
C336        C337   1.414       .  A
C336        C341   1.450       .  S
C337        C338   1.413       .  A
C337        C344   1.449       .  S
C338        C339   1.411       .  A
C339        C340   1.408       .  A
C339        C342   1.448       .  S
C340        C343   1.450       .  S
C341        N348   1.157       .  T
C342        N347   1.156       .  T
C343       N1769   1.157       .  T
C344        N346   1.157       .  T
N345       C1767   1.157   1_455  T
C349        C350   1.415       .  A
C349        C354   1.411       .  A
C350        C351   1.412       .  A
C350        C355   1.453       .  S
C351        C352   1.420       .  A
C351        C358   1.453       .  S
C352        C353   1.420       .  A
C353        C354   1.406       .  A
C353        C356   1.448       .  S
C354        C357   1.455       .  S
C355        N362   1.158   1_545  T
C356        N361   1.155       .  T
C357        N359   1.158       .  T
C358        N360   1.158       .  T
C363        C364   1.418       .  A
C363        C368   1.413       .  A
C364        C365   1.413       .  A
C364        C369   1.452       .  S
C365        C366   1.411       .  A
C365        C372   1.451       .  S
C366        C367   1.410       .  A
C367        C368   1.410       .  A
C367        C370   1.452       .  S
C368        C371   1.445       .  S
C369        N376   1.158       .  T
C370        N375   1.158       .  T
C371        N373   1.155       .  T
C372        N374   1.157       .  T
C377        C378   1.411       .  A
C377        C382   1.410       .  A
C378        C379   1.412       .  A
C378        C383   1.451       .  S
C379        C380   1.415       .  A
C379        C386   1.449       .  S
C380        C381   1.413       .  A
C381        C382   1.407       .  A
C381        C384   1.446       .  S
C382        C385   1.452       .  S
C383        N390   1.158       .  T
C384        N389   1.155       .  T
C385       N1811   1.157   1_455  T
C386        N388   1.157       .  T
N387       C1809   1.157       .  T
C391        C392   1.413       .  A
C391        C396   1.414       .  A
C392        C393   1.410       .  A
C392        C397   1.446       .  S
C393        C394   1.413       .  A
C393        C400   1.447       .  S
C394        C395   1.416       .  A
C395        C396   1.407       .  A
C395        C398   1.452       .  S
C396        C399   1.453       .  S
C397        N404   1.156       .  T
C398        N403   1.157       .  T
C399        N401   1.157       .  T
C400        N402   1.156       .  T
C405        C406   1.410       .  A
C405        C410   1.409       .  A
C406        C407   1.412       .  A
C406        C411   1.448       .  S
C407        C408   1.417       .  A
C407        C414   1.451       .  S
C408        C409   1.415       .  A
C409        C410   1.409       .  A
C409        C412   1.445       .  S
C410        C413   1.451       .  S
C411       N1842   1.156       .  T
C412        N417   1.156       .  T
C413        N415   1.157       .  T
C414        N416   1.157       .  T
N418       C1835   1.156   1_455  T
C419        C420   1.422       .  A
C419        C424   1.415       .  A
C420        C421   1.409       .  A
C420        C425   1.452       .  S
C421        C422   1.409       .  A
C421        C428   1.452       .  S
C422        C423   1.412       .  A
C423        C424   1.408       .  A
C423        C426   1.453       .  S
C424        C427   1.449       .  S
C425        N432   1.158       .  T
C426        N431   1.158       .  T
C427        N429   1.156       .  T
C428        N430   1.157       .  T
C433        C434   1.412       .  A
C433        C438   1.412       .  A
C434        C435   1.404       .  A
C434        C439   1.450       .  S
C435        C436   1.408       .  A
C435        C442   1.450       .  S
C436        C437   1.411       .  A
C437        C438   1.412       .  A
C437        C440   1.449       .  S
C438        C441   1.447       .  S
C439        N446   1.156       .  T
C440        N445   1.156       .  T
C441        N443   1.157       .  T
C442        N444   1.157   1_545  T
C447        C448   1.411       .  A
C447        C452   1.414       .  A
C448        C449   1.411       .  A
C448        C453   1.452       .  S
C449        C450   1.416       .  A
C449        C456   1.450       .  S
C450        C451   1.417       .  A
C451        C452   1.413       .  A
C451        C454   1.452       .  S
C452        C455   1.452       .  S
C453        N460   1.157       .  T
C454        N459   1.158       .  T
C455       N1169   1.157       .  T
C456        N458   1.157       .  T
N457       C1167   1.157   1_545  T
C461        C462   1.424       .  A
C461        C466   1.420       .  A
C462        C463   1.410       .  A
C462        C467   1.446       .  S
C463        C464   1.401       .  A
C463        C470   1.452       .  S
C464        C465   1.406       .  A
C465        C466   1.405       .  A
C465        C468   1.456       .  S
C466        C469   1.445       .  S
C467        N474   1.157       .  T
C468        N473   1.157       .  T
C469        N471   1.157       .  T
C470        N472   1.157       .  T
C475        C480   1.423       .  A
C475       C1900   1.425       .  A
C476        C477   1.414       .  A
C476       C1899   1.425   1_455  A
C476        C481   1.444       .  S
C477       C1902   1.406       .  A
C477        C484   1.454       .  S
C478        C479   1.407       .  A
C478       C1901   1.406       .  A
C479        C480   1.414       .  A
C479        C482   1.450       .  S
C480        C483   1.445       .  S
C481        N488   1.157       .  T
C482        N487   1.156       .  T
C483        N485   1.157       .  T
C484        N486   1.157       .  T
C489        C774   1.495       .  S
C489        C494   1.409   1_545  A
C489       C1202   1.408       .  A
C490        C491   1.414       .  A
C490       C1201   1.408       .  A
C490        C495   1.451       .  S
C491       C1204   1.421       .  A
C491        C498   1.445       .  S
C492        C493   1.422   1_545  A
C492       C1203   1.421       .  A
C493        C494   1.414       .  A
C493        C496   1.445       .  S
C494        C497   1.451       .  S
C495        N502   1.156       .  T
C496        N501   1.157       .  T
C497        N499   1.156       .  T
C498        N500   1.157       .  T
C503        C508   1.423       .  A
C503       C1928   1.424       .  A
C504        C505   1.413       .  A
C504       C1927   1.424   1_455  A
C504        C509   1.446       .  S
C505       C1930   1.404       .  A
C505        C512   1.453       .  S
C506        C507   1.407       .  A
C506       C1929   1.404       .  A
C507        C508   1.413       .  A
C507        C510   1.454       .  S
C508        C511   1.445       .  S
C509        N516   1.157       .  T
C510        N515   1.157       .  T
C511        N513   1.157       .  T
C512        N514   1.157       .  T
C517        C518   1.423       .  A
C517        C522   1.423       .  A
C518        C519   1.403       .  A
C518        C523   1.443       .  S
C519        C520   1.401       .  A
C519        C526   1.455       .  S
C520        C521   1.402       .  A
C521        C522   1.409       .  A
C521        C524   1.451       .  S
C522        C525   1.448       .  S
C523        N530   1.157       .  T
C524        N529   1.157       .  T
C525        N527   1.157       .  T
C526        N528   1.157       .  T
C531        C532   1.406       .  A
C531       C1248   1.406       .  A
C532        C533   1.414       .  A
C532        C537   1.452       .  S
C533       C1246   1.425       .  A
C533        C540   1.446       .  S
C534        C535   1.425       .  A
C534       C1245   1.425   1_545  A
C535        C536   1.415       .  A
C535        C538   1.443       .  S
C536       C1243   1.406   1_545  A
C536        C539   1.455       .  S
C537        N544   1.157       .  T
C538        N543   1.156       .  T
C539        N541   1.157       .  T
C540        N542   1.157       .  T
C545        C546   1.414       .  A
C545        C550   1.415       .  A
C546        C547   1.412       .  A
C546        C551   1.448       .  S
C547        C548   1.410       .  A
C547        C554   1.449       .  S
C548        C549   1.410       .  A
C549        C550   1.405       .  A
C549        C552   1.454       .  S
C550        C553   1.451       .  S
C551        N558   1.156       .  T
C552        N557   1.157   1_556  T
C553        N555   1.157       .  T
C554        N556   1.157       .  T
C559        C560   1.411       .  A
C559        C564   1.408       .  A
C560        C561   1.411       .  A
C560        C565   1.449       .  S
C561        C562   1.412       .  A
C561        C568   1.449       .  S
C562        C563   1.417       .  A
C563        C564   1.412       .  A
C563        C566   1.449       .  S
C564        C567   1.450   1_545  S
C565        N572   1.157       .  T
C566        N571   1.157       .  T
C567       N1281   1.157       .  T
C568        N570   1.157       .  T
N569       C1279   1.157       .  T
C573        C574   1.410       .  A
C573        C578   1.409       .  A
C574        C575   1.406       .  A
C574        C579   1.449       .  S
C575        C576   1.411       .  A
C575        C582   1.451       .  S
C576        C577   1.413       .  A
C577        C578   1.411       .  A
C577        C580   1.447       .  S
C578        C581   1.446       .  S
C579        N586   1.156   1_556  T
C580        N585   1.156       .  T
C581        N583   1.156       .  T
C582        N584   1.157       .  T
C587        C588   1.409       .  A
C587        C592   1.408       .  A
C588        C589   1.409       .  A
C588        C593   1.452       .  S
C589        C590   1.415       .  A
C589        C596   1.448       .  S
C590        C591   1.415       .  A
C591        C592   1.413       .  A
C591        C594   1.447       .  S
C592        C595   1.448       .  S
C593        N600   1.157   1_556  T
C594        N599   1.156       .  T
C595        N597   1.157       .  T
C596       N2022   1.156       .  T
N598       C2020   1.156   1_455  T
C601        C602   1.427       .  A
C601        C606   1.424       .  A
C602        C603   1.419       .  A
C602        C607   1.451       .  S
C603        C604   1.418       .  A
C603        C610   1.454       .  S
C604        C605   1.416       .  A
C605        C606   1.403       .  A
C605        C608   1.454       .  S
C606        C609   1.453       .  S
C607        N614   1.158       .  T
C608        N613   1.157       .  T
C609        N611   1.158       .  T
C610        N612   1.158       .  T
C615        C616   1.415       .  A
C615        C620   1.415       .  A
C616        C617   1.411       .  A
C616        C621   1.452       .  S
C617        C618   1.412       .  A
C617        C624   1.451       .  S
C618        C619   1.415       .  A
C619        C620   1.412       .  A
C619        C622   1.452       .  S
C620        C623   1.452       .  S
C621        N628   1.158       .  T
C622        N627   1.157       .  T
C623       N2049   1.157       .  T
C624        N626   1.157       .  T
N625       C2047   1.157   1_455  T
C629        C630   1.412       .  A
C629        C634   1.418       .  A
C630        C631   1.412       .  A
C630        C635   1.448       .  S
C631        C632   1.417       .  A
C631        C638   1.453       .  S
C632        C633   1.416       .  A
C633        C634   1.414       .  A
C633        C636   1.452       .  S
C634        C637   1.452       .  S
C635        N642   1.156       .  T
C636       N2065   1.157   1_455  T
C637        N639   1.157       .  T
C638        N640   1.158       .  T
N641       C2060   1.157       .  T
C643        C644   1.413       .  A
C643        C648   1.418       .  A
C644        C645   1.408       .  A
C644        C649   1.449       .  S
C645        C646   1.410       .  A
C645        C652   1.452       .  S
C646        C647   1.408       .  A
C647        C648   1.413       .  A
C647        C650   1.450       .  S
C648        C651   1.446       .  S
C649       N2080   1.156   1_455  T
C650        N655   1.157       .  T
C651        N653   1.156       .  T
C652        N654   1.157   1_554  T
N656       C2073   1.156       .  T
C657        C658   1.411       .  A
C657        C662   1.419       .  A
C658        C659   1.408       .  A
C658        C663   1.450       .  S
C659        C660   1.411       .  A
C659        C666   1.449       .  S
C660        C661   1.406       .  A
C661        C662   1.410       .  A
C661        C664   1.450       .  S
C662        C665   1.450       .  S
C663        N670   1.157       .  T
C664       N1381   1.157       .  T
C665        N667   1.157       .  T
C666        N668   1.157       .  T
N669       C1376   1.157       .  T
C671        C672   1.412       .  A
C671        C676   1.412       .  A
C672        C673   1.410       .  A
C672        C677   1.451       .  S
C673        C674   1.411       .  A
C673        C680   1.449       .  S
C674        C675   1.413       .  A
C675        C676   1.411       .  A
C675        C678   1.452       .  S
C676        C679   1.451       .  S
C677        N684   1.157       .  T
C678        N683   1.158       .  T
C679        N681   1.157       .  T
C680        N682   1.157       .  T
C685        C686   1.409       .  A
C685        C690   1.415       .  A
C686        C687   1.404       .  A
C686        C691   1.449       .  S
C687        C688   1.410       .  A
C687        C694   1.452       .  S
C688        C689   1.411       .  A
C689        C690   1.413       .  A
C689        C692   1.450       .  S
C690        C693   1.450       .  S
C691        N698   1.157       .  T
C692        N697   1.157       .  T
C693        N695   1.157       .  T
C694        N696   1.157   1_554  T
C699        C700   1.418       .  A
C699        C704   1.420       .  A
C700        C701   1.416       .  A
C700        C705   1.446       .  S
C701        C702   1.410       .  A
C701        C708   1.450       .  S
C702        C703   1.410       .  A
C703        C704   1.406       .  A
C703        C706   1.456       .  S
C704        C707   1.450       .  S
C705        N712   1.155       .  T
C706        N711   1.158       .  T
C707        N709   1.156       .  T
C708        N710   1.157       .  T
Fe713       O729   2.082       .  S
Fe713       O719   2.065       .  S
Fe713       O726   2.055   1_556  S
Fe713       O718   2.083   1_556  S
Fe713       O724   1.978       .  S
Fe714       O717   2.075       .  S
Fe714       O721   2.061       .  S
Fe714       O725   2.076   1_556  S
Fe714       O730   2.060   1_556  S
Fe714       O724   1.975       .  S
Fe715       O733   2.051       .  S
Fe715       O720   2.066   1_556  S
Fe715       O727   2.066       .  S
Fe715       O716   2.045   1_556  S
Fe715       O724   1.974       .  S
O716        C723   1.265       .  A
O717        C731   1.271       .  A
O718        C723   1.271       .  A
O719        C722   1.268       .  A
O720        C732   1.268       .  A
O721        C734   1.269       .  A
C722        O727   1.269       .  A
C722       C1386   1.480       .  S
C723       C1414   1.481       .  S
O725        C728   1.269       .  A
O726        C728   1.266       .  A
C728       C1358   1.477       .  S
O729        C734   1.274       .  A
O730        C732   1.268       .  A
C731        O733   1.265       .  A
C731       C1369   1.483       .  S
C732       C1400   1.474       .  S
C734       C1341   1.494       .  S
Fe735       O751   2.064   1_554  S
Fe735       O741   2.078   1_554  S
Fe735       O748   2.058       .  S
Fe735       O740   2.063       .  S
Fe735       O746   1.967       .  S
Fe736       O739   2.060   1_554  S
Fe736       O743   2.080   1_554  S
Fe736       O747   2.067       .  S
Fe736       O752   2.080       .  S
Fe736       O746   1.966       .  S
Fe737       O755   2.054       .  S
Fe737       O742   2.068   1_556  S
Fe737       O749   2.057       .  S
Fe737       O738   2.061   1_556  S
Fe737       O746   1.967   1_556  S
O738        C745   1.269       .  A
O739        C753   1.266       .  A
O740        C745   1.269       .  A
O741        C744   1.268       .  A
O742        C754   1.272       .  A
O743        C756   1.275       .  A
C744        O749   1.266       .  A
C744       C1285   1.477       .  S
C745       C1316   1.498       .  S
O747        C750   1.266       .  A
O748        C750   1.265       .  A
C750       C1330   1.485       .  S
O751        C756   1.273       .  A
O752        C754   1.275       .  A
C753        O755   1.263       .  A
C753       C1260   1.474       .  S
C754       C1274   1.487       .  S
C756       C1299   1.478       .  S
C757       C1187   1.525       .  S
C757        C758   1.434       .  A
C757       C2186   1.436       .  A
C758       C1246   1.527       .  S
C759       C1229   1.510       .  S
C759        C760   1.432       .  A
C760       C1215   1.521       .  S
C760       C1473   1.429   1_565  A
C761       C1204   1.522       .  S
C761       C1472   1.429   1_455  A
C761        C762   1.434       .  A
C762       C1173   1.509       .  S
C762       C2181   1.436   1_455  A
C763       C1271   1.486       .  S
C763        C764   1.404       .  A
C764        H769   1.084       .  S
C765       C1243   1.490       .  S
C765        C766   1.404       .  A
C766        C767   1.406       .  A
C766        H770   1.084       .  S
C767       C1159   1.488       .  S
C767        C768   1.405       .  A
C768        H771   1.084       .  S
C772       C1397   1.485       .  S
C772        C773   1.407       .  A
C773        C774   1.403   1_565  A
C773        H778   1.084       .  S
C775        C776   1.406       .  A
C775        H779   1.084       .  S
C776       C1148   1.481       .  S
C776        C777   1.400       .  A
C777        H780   1.084       .  S
C781       C1134   1.482       .  S
C781        C782   1.408       .  A
C781        C786   1.395       .  A
C782        C783   1.421       .  A
C782        H787   1.075       .  S
C783       C1313   1.534       .  S
C783        C784   1.413       .  A
C784        C785   1.392       .  A
C784        H788   1.072       .  S
C785       C1176   1.475       .  S
C785        C786   1.386       .  A
C786        H789   1.085       .  S
C790       C1117   1.487       .  S
C790        C791   1.403       .  A
C790        C795   1.402       .  A
C791       C2216   1.407       .  A
C791        H796   1.083       .  S
C792       C1355   1.496       .  S
C792       C2215   1.407   1_455  A
C792        C793   1.412       .  A
C793       C2218   1.404       .  A
C793        H797   1.084       .  S
C794       C1190   1.493       .  S
C794       C2217   1.404       .  A
C794        C795   1.398       .  A
C795        H798   1.085       .  S
C799       C1106   1.494       .  S
C799        C800   1.412       .  A
C799        C804   1.398       .  A
C800        C801   1.413       .  A
C800        H805   1.082       .  S
C801       C1411   1.503       .  S
C801        C802   1.405       .  A
C802        C803   1.397       .  A
C802        H806   1.084       .  S
C803       C1232   1.471       .  S
C803        C804   1.389       .  A
C804        H807   1.085       .  S
C808       C1089   1.482       .  S
C808       C2233   1.403       .  A
C808        C813   1.400       .  A
C809       C2232   1.403       .  A
C809        C810   1.403       .  A
C809        H814   1.084       .  S
C810       C1327   1.492       .  S
C810        C811   1.408       .  A
C811        C812   1.405       .  A
C811        H815   1.084       .  S
C812       C1218   1.488       .  S
C812       C2237   1.400       .  A
C813       C2236   1.400       .  A
C813        H816   1.084       .  S
Fe817       O833   2.069       .  S
Fe817       O823   2.074       .  S
Fe817       O830   2.070       .  S
Fe817       O822   2.058       .  S
Fe817       O828   1.976       .  S
Fe818       O821   2.054       .  S
Fe818       O825   2.061       .  S
Fe818       O829   2.051       .  S
Fe818       O834   2.076       .  S
Fe818       O828   1.976       .  S
Fe819       O837   2.074       .  S
Fe819       O824   2.067       .  S
Fe819       O831   2.067       .  S
Fe819       O820   2.080       .  S
Fe819       O828   1.972       .  S
O820        C827   1.269       .  A
O821        C835   1.266       .  A
O822        C827   1.263       .  A
O823        C826   1.274       .  A
O824        C836   1.272       .  A
O825        C838   1.266       .  A
C826        O831   1.271       .  A
C826       C1120   1.492       .  S
C827       C1050   1.484       .  S
O829        C832   1.269       .  A
O830        C832   1.270       .  A
C832       C1064   1.499       .  S
O833        C838   1.267       .  A
O834        C836   1.271       .  A
C835        O837   1.271       .  A
C835       C1103   1.484       .  S
C836       C1075   1.493       .  S
C838       C1145   1.477       .  S
Fe839       O855   2.056       .  S
Fe839       O845   2.070       .  S
Fe839       O852   2.063       .  S
Fe839       O844   2.054       .  S
Fe839       O850   1.972       .  S
Fe840       O843   2.076       .  S
Fe840       O847   2.074       .  S
Fe840       O851   2.079       .  S
Fe840       O856   2.059       .  S
Fe840       O850   1.976       .  S
Fe841       O859   2.060       .  S
Fe841       O846   2.073       .  S
Fe841       O853   2.059       .  S
Fe841       O842   2.060       .  S
Fe841       O850   1.974       .  S
O842        C849   1.269       .  A
O843        C857   1.272       .  A
O844        C849   1.265       .  A
O845        C848   1.271       .  A
O846        C858   1.270       .  A
O847        C860   1.269       .  A
C848        O853   1.269       .  A
C848       C1008   1.483       .  S
C849       C1131   1.490       .  S
O851        C854   1.271       .  A
O852        C854   1.270       .  A
C854       C1162   1.493       .  S
O855        C860   1.266       .  A
O856        C858   1.267       .  A
C857        O859   1.267       .  A
C857       C1022   1.501       .  S
C858       C1092   1.486       .  S
C860       C1033   1.480       .  S
C861        C991   1.524       .  S
C861       C1574   1.437       .  A
C861        C866   1.435       .  A
C862        C977   1.518       .  S
C862       C1573   1.437       .  A
C862        C863   1.439       .  A
C863        C938   1.528       .  S
C863       C2288   1.434       .  A
C864        C924   1.522       .  S
C864       C2287   1.434       .  A
C865        C963   1.517       .  S
C865        C866   1.433       .  A
C866        C949   1.523       .  S
C867       C1372   1.484       .  S
C867        C872   1.403       .  A
C868        C869   1.405       .  A
C868        H873   1.083       .  S
C869       C1061   1.489       .  S
C869        C870   1.405       .  A
C870        H874   1.084       .  S
C871        C980   1.483       .  S
C871        C872   1.396   1_545  A
C872        H875   1.085       .  S
C876       C1257   1.488       .  S
C876        C881   1.402       .  A
C877        C878   1.407   1_545  A
C877        H882   1.083       .  S
C878       C1036   1.487       .  S
C878        C879   1.403       .  A
C879        C880   1.394       .  A
C879        H883   1.084       .  S
C880        C966   1.476       .  S
C881        H884   1.084       .  S
C885       C1047   1.483       .  S
C885        C886   1.406       .  A
C885        C890   1.398       .  A
C886       C2311   1.410       .  A
C886        H891   1.083       .  S
C887       C1344   1.498       .  S
C887       C2310   1.410   1_455  A
C887        C888   1.408       .  A
C888       C2313   1.400   1_455  A
C888        H892   1.084       .  S
C889        C921   1.481       .  S
C889       C2312   1.400       .  A
C889        C890   1.396       .  A
C890        H893   1.085       .  S
C894       C1005   1.498       .  S
C894        C895   1.407       .  A
C894        C899   1.409       .  A
C895        C896   1.403       .  A
C895        H900   1.082       .  S
C896       C1288   1.489       .  S
C896        C897   1.405       .  A
C897        C898   1.397       .  A
C897        H901   1.084       .  S
C898        C935   1.486       .  S
C898        C899   1.400       .  A
C899        H902   1.084       .  S
C903       C1019   1.496       .  S
C903       C2328   1.408   1_455  A
C903        C908   1.406       .  A
C904       C2327   1.408       .  A
C904        C905   1.410       .  A
C904        H909   1.083       .  S
C905       C1302   1.494       .  S
C905        C906   1.406       .  A
C906        C907   1.400       .  A
C906        H910   1.084       .  S
C907        C994   1.488       .  S
C907       C2332   1.397       .  A
C908       C2331   1.397   1_455  A
C908        H911   1.085       .  S
C912       C1078   1.485       .  S
C912        C913   1.404       .  A
C912        C917   1.404       .  A
C913        C914   1.404       .  A
C913        H918   1.084       .  S
C914       C1383   1.483       .  S
C914        C915   1.401       .  A
C915        C916   1.400       .  A
C915        H919   1.084       .  S
C916        C952   1.484       .  S
C916        C917   1.401       .  A
C917        H920   1.084       .  S
C921        C922   1.403       .  A
C921       C2350   1.405       .  A
C922        C923   1.413       .  A
C922        C927   1.452       .  S
C923        C924   1.426       .  A
C923        C930   1.446       .  S
C924       C2349   1.424       .  A
C925       C2348   1.424   1_455  A
C925        C926   1.409       .  A
C925        C928   1.446       .  S
C926       C2345   1.405   1_455  A
C926        C929   1.453       .  S
C927        N934   1.157       .  T
C928        N933   1.157       .  T
C929        N931   1.157       .  T
C930        N932   1.157       .  T
C935        C936   1.405       .  A
C935        C940   1.404       .  A
C936        C937   1.411       .  A
C936        C941   1.452       .  S
C937        C938   1.425       .  A
C937        C944   1.446       .  S
C938        C939   1.427       .  A
C939        C940   1.413       .  A
C939        C942   1.445       .  S
C940        C943   1.452       .  S
C941        N948   1.157       .  T
C942        N947   1.157       .  T
C943        N945   1.157       .  T
C944        N946   1.157       .  T
C949        C950   1.425       .  A
C949        C954   1.424       .  A
C950        C951   1.412       .  A
C950        C955   1.445       .  S
C951        C952   1.405       .  A
C951        C958   1.454       .  S
C952        C953   1.405       .  A
C953        C954   1.412       .  A
C953        C956   1.453       .  S
C954        C957   1.447       .  S
C955        N962   1.157       .  T
C956        N961   1.157       .  T
C957        N959   1.157       .  T
C958        N960   1.157       .  T
C963        C964   1.424       .  A
C964        C965   1.408       .  A
C964        C969   1.445       .  S
C965        C966   1.403       .  A
C965        C972   1.453       .  S
C967        C968   1.409       .  A
C967        C970   1.452       .  S
C968        C971   1.446       .  S
C969        N976   1.157       .  T
C970        N975   1.157       .  T
C971        N973   1.157       .  T
C972        N974   1.157       .  T
C977        C978   1.424       .  A
C978        C979   1.410       .  A
C978        C983   1.447       .  S
C979        C986   1.453       .  S
C980        C981   1.406   1_545  A
C981        C982   1.410       .  A
C981        C984   1.454       .  S
C982        C985   1.445       .  S
C983        N990   1.157       .  T
C984        N989   1.157       .  T
C985        N987   1.157       .  T
C986        N988   1.157       .  T
C991       C2416   1.426       .  A
C991        C996   1.423       .  A
C992       C2415   1.426   1_655  A
C992        C993   1.413       .  A
C992        C997   1.446       .  S
C993       C2418   1.405       .  A
C993       C1000   1.452       .  S
C994       C2417   1.405       .  A
C994        C995   1.406       .  A
C995        C996   1.410       .  A
C995        C998   1.452       .  S
C996        C999   1.445       .  S
C997       N1004   1.157       .  T
C998       N1003   1.157       .  T
C999       N1001   1.157       .  T
C1000      N1002   1.157       .  T
C1005      C1006   1.417       .  A
C1005      C1010   1.420       .  A
C1006      C1007   1.407       .  A
C1006      C1011   1.451       .  S
C1007      C1008   1.413       .  A
C1007      C1014   1.454       .  S
C1008      C1009   1.410       .  A
C1009      C1010   1.413       .  A
C1009      C1012   1.449       .  S
C1010      C1013   1.450       .  S
C1011      N1018   1.157       .  T
C1012      N1017   1.156       .  T
C1013      N1015   1.157       .  T
C1014      N1016   1.157       .  T
C1019      C1020   1.411       .  A
C1019      C1024   1.412       .  A
C1020      C1021   1.414       .  A
C1020      C1025   1.448       .  S
C1021      C1022   1.420       .  A
C1021      C1028   1.449       .  S
C1022      C1023   1.416       .  A
C1023      C1024   1.410       .  A
C1023      C1026   1.447       .  S
C1024      C1027   1.450       .  S
C1025      N2456   1.156   1_455  T
C1026      N1031   1.156       .  T
C1027      N1029   1.157       .  T
C1028      N1030   1.157       .  T
N1032      C2449   1.156       .  T
C1033      C1034   1.413       .  A
C1033      C1038   1.412       .  A
C1034      C1035   1.404       .  A
C1034      C1039   1.452       .  S
C1035      C1036   1.412       .  A
C1035      C1042   1.452       .  S
C1036      C1037   1.414       .  A
C1037      C1038   1.414       .  A
C1037      C1040   1.450       .  S
C1038      C1041   1.448       .  S
C1039      N1046   1.157       .  T
C1040      N1045   1.157       .  T
C1041      N1043   1.157       .  T
C1042      N1044   1.157   1_565  T
C1047      C1048   1.412       .  A
C1047      C1052   1.408       .  A
C1048      C1049   1.414       .  A
C1048      C1053   1.450       .  S
C1049      C1050   1.413       .  A
C1049      C1056   1.449       .  S
C1050      C1051   1.411       .  A
C1051      C1052   1.408       .  A
C1051      C1054   1.448       .  S
C1052      C1055   1.450       .  S
C1053      N1060   1.157       .  T
C1054      N1059   1.156       .  T
C1055      N2481   1.157       .  T
C1056      N1058   1.157       .  T
N1057      C2479   1.157   1_455  T
C1061      C1062   1.415       .  A
C1061      C1066   1.411       .  A
C1062      C1063   1.412       .  A
C1062      C1067   1.453       .  S
C1063      C1064   1.420       .  A
C1063      C1070   1.453       .  S
C1064      C1065   1.420       .  A
C1065      C1066   1.406       .  A
C1065      C1068   1.448       .  S
C1066      C1069   1.455       .  S
C1067      N1074   1.158       .  T
C1068      N1073   1.155       .  T
C1069      N1071   1.158       .  T
C1070      N1072   1.158       .  T
C1075      C1076   1.418       .  A
C1075      C1080   1.413       .  A
C1076      C1077   1.413       .  A
C1076      C1081   1.452       .  S
C1077      C1078   1.411       .  A
C1077      C1084   1.451       .  S
C1078      C1079   1.410       .  A
C1079      C1080   1.410       .  A
C1079      C1082   1.452       .  S
C1080      C1083   1.445       .  S
C1081      N1088   1.158       .  T
C1082      N1087   1.158       .  T
C1083      N1085   1.155       .  T
C1084      N1086   1.157       .  T
C1089      C1090   1.411       .  A
C1089      C1094   1.410       .  A
C1090      C1091   1.412       .  A
C1090      C1095   1.451       .  S
C1091      C1092   1.415       .  A
C1091      C1098   1.449       .  S
C1092      C1093   1.413       .  A
C1093      C1094   1.407       .  A
C1093      C1096   1.446       .  S
C1094      C1097   1.452       .  S
C1095      N1102   1.158       .  T
C1096      N1101   1.155       .  T
C1097      N2523   1.157   1_455  T
C1098      N1100   1.157       .  T
N1099      C2521   1.157       .  T
C1103      C1104   1.413       .  A
C1103      C1108   1.414       .  A
C1104      C1105   1.410       .  A
C1104      C1109   1.446       .  S
C1105      C1106   1.413       .  A
C1105      C1112   1.447       .  S
C1106      C1107   1.416       .  A
C1107      C1108   1.407       .  A
C1107      C1110   1.452       .  S
C1108      C1111   1.453       .  S
C1109      N1116   1.156       .  T
C1110      N1115   1.157       .  T
C1111      N1113   1.157       .  T
C1112      N1114   1.156       .  T
C1117      C1118   1.410       .  A
C1117      C1122   1.409       .  A
C1118      C1119   1.412       .  A
C1118      C1123   1.448       .  S
C1119      C1120   1.417       .  A
C1119      C1126   1.451       .  S
C1120      C1121   1.415       .  A
C1121      C1122   1.409       .  A
C1121      C1124   1.445       .  S
C1122      C1125   1.451       .  S
C1123      N2554   1.156       .  T
C1124      N1129   1.156       .  T
C1125      N1127   1.157       .  T
C1126      N1128   1.157       .  T
N1130      C2547   1.156   1_455  T
C1131      C1132   1.422       .  A
C1131      C1136   1.415       .  A
C1132      C1133   1.409       .  A
C1132      C1137   1.452       .  S
C1133      C1134   1.409       .  A
C1133      C1140   1.452       .  S
C1134      C1135   1.412       .  A
C1135      C1136   1.408       .  A
C1135      C1138   1.453       .  S
C1136      C1139   1.449       .  S
C1137      N1144   1.158       .  T
C1138      N1143   1.158       .  T
C1139      N1141   1.156       .  T
C1140      N1142   1.157       .  T
C1145      C1146   1.412       .  A
C1145      C1150   1.412       .  A
C1146      C1147   1.404       .  A
C1146      C1151   1.450       .  S
C1147      C1148   1.408       .  A
C1147      C1154   1.450       .  S
C1148      C1149   1.411       .  A
C1149      C1150   1.412       .  A
C1149      C1152   1.449       .  S
C1150      C1153   1.447       .  S
C1151      N1158   1.156       .  T
C1152      N1157   1.156       .  T
C1153      N1155   1.157       .  T
C1154      N1156   1.157       .  T
C1159      C1160   1.411       .  A
C1159      C1164   1.414       .  A
C1160      C1161   1.411       .  A
C1160      C1165   1.452       .  S
C1161      C1162   1.416       .  A
C1161      C1168   1.450       .  S
C1162      C1163   1.417       .  A
C1163      C1164   1.413       .  A
C1163      C1166   1.452       .  S
C1164      C1167   1.452       .  S
C1165      N1172   1.157       .  T
C1166      N1171   1.158       .  T
C1168      N1170   1.157       .  T
C1173      C1174   1.424       .  A
C1173      C1178   1.420       .  A
C1174      C1175   1.410       .  A
C1174      C1179   1.446       .  S
C1175      C1176   1.401       .  A
C1175      C1182   1.452       .  S
C1176      C1177   1.406       .  A
C1177      C1178   1.405       .  A
C1177      C1180   1.456       .  S
C1178      C1181   1.445       .  S
C1179      N1186   1.157       .  T
C1180      N1185   1.157       .  T
C1181      N1183   1.157       .  T
C1182      N1184   1.157       .  T
C1187      C2612   1.425       .  A
C1187      C1192   1.423       .  A
C1188      C2611   1.425   1_455  A
C1188      C1189   1.414       .  A
C1188      C1193   1.444       .  S
C1189      C2614   1.406       .  A
C1189      C1196   1.454       .  S
C1190      C2613   1.406       .  A
C1190      C1191   1.407       .  A
C1191      C1192   1.414       .  A
C1191      C1194   1.450       .  S
C1192      C1195   1.445       .  S
C1193      N1200   1.157       .  T
C1194      N1199   1.156       .  T
C1195      N1197   1.157       .  T
C1196      N1198   1.157       .  T
C1201      C1206   1.409       .  A
C1202      C1203   1.414       .  A
C1202      C1207   1.451       .  S
C1203      C1210   1.445       .  S
C1204      C1205   1.422       .  A
C1205      C1206   1.414       .  A
C1205      C1208   1.445       .  S
C1206      C1209   1.451       .  S
C1207      N1214   1.156       .  T
C1208      N1213   1.157       .  T
C1209      N1211   1.156       .  T
C1210      N1212   1.157       .  T
C1215      C2640   1.424       .  A
C1215      C1220   1.423       .  A
C1216      C2639   1.424   1_455  A
C1216      C1217   1.413       .  A
C1216      C1221   1.446       .  S
C1217      C2642   1.404       .  A
C1217      C1224   1.453       .  S
C1218      C2641   1.404       .  A
C1218      C1219   1.407       .  A
C1219      C1220   1.413       .  A
C1219      C1222   1.454       .  S
C1220      C1223   1.445       .  S
C1221      N1228   1.157       .  T
C1222      N1227   1.157       .  T
C1223      N1225   1.157       .  T
C1224      N1226   1.157       .  T
C1229      C1230   1.423       .  A
C1229      C1234   1.423       .  A
C1230      C1231   1.403       .  A
C1230      C1235   1.443       .  S
C1231      C1232   1.401       .  A
C1231      C1238   1.455       .  S
C1232      C1233   1.402       .  A
C1233      C1234   1.409       .  A
C1233      C1236   1.451       .  S
C1234      C1237   1.448       .  S
C1235      N1242   1.157       .  T
C1236      N1241   1.157       .  T
C1237      N1239   1.157       .  T
C1238      N1240   1.157       .  T
C1243      C1244   1.406       .  A
C1244      C1245   1.414       .  A
C1244      C1249   1.452       .  S
C1245      C1252   1.446       .  S
C1246      C1247   1.425       .  A
C1247      C1248   1.415       .  A
C1247      C1250   1.443       .  S
C1248      C1251   1.455       .  S
C1249      N1256   1.157       .  T
C1250      N1255   1.156       .  T
C1251      N1253   1.157       .  T
C1252      N1254   1.157       .  T
C1257      C1258   1.414       .  A
C1257      C1262   1.415       .  A
C1258      C1259   1.412       .  A
C1258      C1263   1.448       .  S
C1259      C1260   1.410       .  A
C1259      C1266   1.449       .  S
C1260      C1261   1.410       .  A
C1261      C1262   1.405       .  A
C1261      C1264   1.454       .  S
C1262      C1265   1.451       .  S
C1263      N1270   1.156       .  T
C1264      N1269   1.157   1_556  T
C1265      N1267   1.157       .  T
C1266      N1268   1.157       .  T
C1271      C1272   1.411       .  A
C1271      C1276   1.408       .  A
C1272      C1273   1.411       .  A
C1272      C1277   1.449       .  S
C1273      C1274   1.412       .  A
C1273      C1280   1.449       .  S
C1274      C1275   1.417       .  A
C1275      C1276   1.412       .  A
C1275      C1278   1.449       .  S
C1276      C1279   1.450       .  S
C1277      N1284   1.157       .  T
C1278      N1283   1.157       .  T
C1280      N1282   1.157       .  T
C1285      C1286   1.410       .  A
C1285      C1290   1.409       .  A
C1286      C1287   1.406       .  A
C1286      C1291   1.449       .  S
C1287      C1288   1.411       .  A
C1287      C1294   1.451       .  S
C1288      C1289   1.413       .  A
C1289      C1290   1.411       .  A
C1289      C1292   1.447       .  S
C1290      C1293   1.446       .  S
C1291      N1298   1.156   1_556  T
C1292      N1297   1.156       .  T
C1293      N1295   1.156       .  T
C1294      N1296   1.157       .  T
C1299      C1300   1.409       .  A
C1299      C1304   1.408       .  A
C1300      C1301   1.409       .  A
C1300      C1305   1.452       .  S
C1301      C1302   1.415       .  A
C1301      C1308   1.448       .  S
C1302      C1303   1.415       .  A
C1303      C1304   1.413       .  A
C1303      C1306   1.447       .  S
C1304      C1307   1.448       .  S
C1305      N1312   1.157   1_556  T
C1306      N1311   1.156       .  T
C1307      N1309   1.157       .  T
C1308      N2734   1.156       .  T
N1310      C2732   1.156   1_455  T
C1313      C1314   1.427       .  A
C1313      C1318   1.424       .  A
C1314      C1315   1.419       .  A
C1314      C1319   1.451       .  S
C1315      C1316   1.418       .  A
C1315      C1322   1.454       .  S
C1316      C1317   1.416       .  A
C1317      C1318   1.403       .  A
C1317      C1320   1.454       .  S
C1318      C1321   1.453       .  S
C1319      N1326   1.158       .  T
C1320      N1325   1.157       .  T
C1321      N1323   1.158       .  T
C1322      N1324   1.158       .  T
C1327      C1328   1.415       .  A
C1327      C1332   1.415       .  A
C1328      C1329   1.411       .  A
C1328      C1333   1.452       .  S
C1329      C1330   1.412       .  A
C1329      C1336   1.451       .  S
C1330      C1331   1.415       .  A
C1331      C1332   1.412       .  A
C1331      C1334   1.452       .  S
C1332      C1335   1.452       .  S
C1333      N1340   1.158       .  T
C1334      N1339   1.157       .  T
C1335      N2761   1.157       .  T
C1336      N1338   1.157       .  T
N1337      C2759   1.157   1_455  T
C1341      C1342   1.412       .  A
C1341      C1346   1.418       .  A
C1342      C1343   1.412       .  A
C1342      C1347   1.448       .  S
C1343      C1344   1.417       .  A
C1343      C1350   1.453       .  S
C1344      C1345   1.416       .  A
C1345      C1346   1.414       .  A
C1345      C1348   1.452       .  S
C1346      C1349   1.452       .  S
C1347      N1354   1.156       .  T
C1348      N2777   1.157   1_455  T
C1349      N1351   1.157       .  T
C1350      N1352   1.158       .  T
N1353      C2772   1.157       .  T
C1355      C1356   1.413       .  A
C1355      C1360   1.418       .  A
C1356      C1357   1.408       .  A
C1356      C1361   1.449       .  S
C1357      C1358   1.410       .  A
C1357      C1364   1.452       .  S
C1358      C1359   1.408       .  A
C1359      C1360   1.413       .  A
C1359      C1362   1.450       .  S
C1360      C1363   1.446       .  S
C1361      N2792   1.156   1_455  T
C1362      N1367   1.157       .  T
C1363      N1365   1.156       .  T
C1364      N1366   1.157   1_554  T
N1368      C2785   1.156       .  T
C1369      C1370   1.411       .  A
C1369      C1374   1.419       .  A
C1370      C1371   1.408       .  A
C1370      C1375   1.450       .  S
C1371      C1372   1.411       .  A
C1371      C1378   1.449       .  S
C1372      C1373   1.406       .  A
C1373      C1374   1.410       .  A
C1373      C1376   1.450   1_565  S
C1374      C1377   1.450       .  S
C1375      N1382   1.157       .  T
C1377      N1379   1.157       .  T
C1378      N1380   1.157       .  T
C1383      C1384   1.412       .  A
C1383      C1388   1.412       .  A
C1384      C1385   1.410       .  A
C1384      C1389   1.451       .  S
C1385      C1386   1.411       .  A
C1385      C1392   1.449       .  S
C1386      C1387   1.413       .  A
C1387      C1388   1.411       .  A
C1387      C1390   1.452       .  S
C1388      C1391   1.451       .  S
C1389      N1396   1.157       .  T
C1390      N1395   1.158       .  T
C1391      N1393   1.157       .  T
C1392      N1394   1.157       .  T
C1397      C1398   1.409       .  A
C1397      C1402   1.415       .  A
C1398      C1399   1.404       .  A
C1398      C1403   1.449       .  S
C1399      C1400   1.410       .  A
C1399      C1406   1.452       .  S
C1400      C1401   1.411       .  A
C1401      C1402   1.413       .  A
C1401      C1404   1.450       .  S
C1402      C1405   1.450       .  S
C1403      N1410   1.157   1_565  T
C1404      N1409   1.157       .  T
C1405      N1407   1.157       .  T
C1406      N1408   1.157   1_554  T
C1411      C1412   1.418       .  A
C1411      C1416   1.420       .  A
C1412      C1413   1.416       .  A
C1412      C1417   1.446       .  S
C1413      C1414   1.410       .  A
C1413      C1420   1.450       .  S
C1414      C1415   1.410       .  A
C1415      C1416   1.406       .  A
C1415      C1418   1.456       .  S
C1416      C1419   1.450       .  S
C1417      N1424   1.155       .  T
C1418      N1423   1.158       .  T
C1419      N1421   1.156       .  T
C1420      N1422   1.157       .  T
Fe1425     O1441   2.082       .  S
Fe1425     O1431   2.065       .  S
Fe1425     O1438   2.055   1_556  S
Fe1425     O1430   2.083   1_556  S
Fe1425     O1436   1.978       .  S
Fe1426     O1429   2.075       .  S
Fe1426     O1433   2.061       .  S
Fe1426     O1437   2.076   1_556  S
Fe1426     O1442   2.060   1_556  S
Fe1426     O1436   1.975       .  S
Fe1427     O1445   2.051       .  S
Fe1427     O1432   2.066   1_556  S
Fe1427     O1439   2.066       .  S
Fe1427     O1428   2.045   1_556  S
Fe1427     O1436   1.974       .  S
O1428      C1435   1.265       .  A
O1429      C1443   1.271       .  A
O1430      C1435   1.271       .  A
O1431      C1434   1.268       .  A
O1432      C1444   1.268       .  A
O1433      C1446   1.269       .  A
C1434      O1439   1.269       .  A
C1434      C2098   1.480       .  S
C1435      C2126   1.481       .  S
O1437      C1440   1.269       .  A
O1438      C1440   1.266       .  A
C1440      C2070   1.477       .  S
O1441      C1446   1.274       .  A
O1442      C1444   1.268       .  A
C1443      O1445   1.265       .  A
C1443      C2081   1.483       .  S
C1444      C2112   1.474       .  S
C1446      C2053   1.494       .  S
Fe1447     O1463   2.064   1_554  S
Fe1447     O1453   2.078   1_554  S
Fe1447     O1460   2.058       .  S
Fe1447     O1452   2.063       .  S
Fe1447     O1458   1.967       .  S
Fe1448     O1451   2.060   1_554  S
Fe1448     O1455   2.080   1_554  S
Fe1448     O1459   2.067       .  S
Fe1448     O1464   2.080       .  S
Fe1448     O1458   1.966       .  S
Fe1449     O1467   2.054       .  S
Fe1449     O1454   2.068   1_556  S
Fe1449     O1461   2.057       .  S
Fe1449     O1450   2.061   1_556  S
Fe1449     O1458   1.967   1_556  S
O1450      C1457   1.269       .  A
O1451      C1465   1.266       .  A
O1452      C1457   1.269       .  A
O1453      C1456   1.268       .  A
O1454      C1466   1.272       .  A
O1455      C1468   1.275       .  A
C1456      O1461   1.266       .  A
C1456      C1997   1.477       .  S
C1457      C2028   1.498       .  S
O1459      C1462   1.266       .  A
O1460      C1462   1.265       .  A
C1462      C2042   1.485       .  S
O1463      C1468   1.273       .  A
O1464      C1466   1.275       .  A
C1465      O1467   1.263       .  A
C1465      C1972   1.474       .  S
C1466      C1986   1.487       .  S
C1468      C2011   1.478       .  S
C1469      C1899   1.525       .  S
C1469      C1470   1.434       .  A
C1470      C1958   1.527       .  S
C1470      C2183   1.438   1_545  A
C1471      C1941   1.510       .  S
C1471      C2182   1.438       .  A
C1471      C1472   1.432       .  A
C1472      C1927   1.521       .  S
C1473      C1916   1.522       .  S
C1473      C1474   1.434       .  A
C1474      C1885   1.509       .  S
C1475      C1983   1.486       .  S
C1475      C1476   1.404       .  A
C1475      C2192   1.402   1_545  A
C1476      C2189   1.400   1_545  A
C1476      H1481   1.084       .  S
C1477      C1955   1.490       .  S
C1477      C2188   1.400       .  A
C1477      C1478   1.404       .  A
C1478      C1479   1.406       .  A
C1478      H1482   1.084       .  S
C1479      C1871   1.488       .  S
C1479      C1480   1.405       .  A
C1480      C2187   1.402       .  A
C1480      H1483   1.084       .  S
C1484      C2109   1.485       .  S
C1484      C1485   1.407       .  A
C1484      C2201   1.401       .  A
C1485      C1486   1.403       .  A
C1485      H1490   1.084       .  S
C1486      C2625   1.495       .  S
C1486      C2199   1.402       .  A
C1487      C2198   1.402       .  A
C1487      C1488   1.406       .  A
C1487      H1491   1.084       .  S
C1488      C1860   1.481       .  S
C1488      C1489   1.400       .  A
C1489      C2196   1.401   1_545  A
C1489      H1492   1.084       .  S
C1493      C1846   1.482       .  S
C1493      C1494   1.408       .  A
C1493      C1498   1.395       .  A
C1494      C1495   1.421       .  A
C1494      H1499   1.075       .  S
C1495      C2025   1.534       .  S
C1495      C1496   1.413       .  A
C1496      C1497   1.392       .  A
C1496      H1500   1.072       .  S
C1497      C1888   1.475       .  S
C1497      C1498   1.386       .  A
C1498      H1501   1.085       .  S
C1502      C1829   1.487       .  S
C1502      C1503   1.403       .  A
C1502      C1507   1.402       .  A
C1503      H1508   1.083       .  S
C1504      C2067   1.496       .  S
C1504      C1505   1.412       .  A
C1505      H1509   1.084       .  S
C1506      C1902   1.493       .  S
C1506      C1507   1.398   1_455  A
C1507      H1510   1.085       .  S
C1511      C1818   1.494       .  S
C1511      C1512   1.412       .  A
C1511      C1516   1.398       .  A
C1512      C1513   1.413       .  A
C1512      H1517   1.082       .  S
C1513      C2123   1.503       .  S
C1513      C1514   1.405       .  A
C1514      C1515   1.397       .  A
C1514      H1518   1.084       .  S
C1515      C1944   1.471       .  S
C1515      C1516   1.389       .  A
C1516      H1519   1.085       .  S
C1520      C1801   1.482       .  S
C1520      C1525   1.400       .  A
C1521      C1522   1.403   1_455  A
C1521      H1526   1.084       .  S
C1522      C2039   1.492       .  S
C1522      C1523   1.408       .  A
C1523      C1524   1.405   1_655  A
C1523      H1527   1.084       .  S
C1524      C1930   1.488       .  S
C1525      H1528   1.084       .  S
Fe1529     O1545   2.069       .  S
Fe1529     O1535   2.074       .  S
Fe1529     O1542   2.070       .  S
Fe1529     O1534   2.058       .  S
Fe1529     O1540   1.976       .  S
Fe1530     O1533   2.054       .  S
Fe1530     O1537   2.061       .  S
Fe1530     O1541   2.051       .  S
Fe1530     O1546   2.076       .  S
Fe1530     O1540   1.976       .  S
Fe1531     O1549   2.074       .  S
Fe1531     O1536   2.067       .  S
Fe1531     O1543   2.067       .  S
Fe1531     O1532   2.080       .  S
Fe1531     O1540   1.972       .  S
O1532      C1539   1.269       .  A
O1533      C1547   1.266       .  A
O1534      C1539   1.263       .  A
O1535      C1538   1.274       .  A
O1536      C1548   1.272       .  A
O1537      C1550   1.266       .  A
C1538      O1543   1.271       .  A
C1538      C1832   1.492       .  S
C1539      C1762   1.484       .  S
O1541      C1544   1.269       .  A
O1542      C1544   1.270       .  A
C1544      C1776   1.499       .  S
O1545      C1550   1.267       .  A
O1546      C1548   1.271       .  A
C1547      O1549   1.271       .  A
C1547      C1815   1.484       .  S
C1548      C1787   1.493       .  S
C1550      C1857   1.477       .  S
Fe1551     O1567   2.056       .  S
Fe1551     O1557   2.070       .  S
Fe1551     O1564   2.063       .  S
Fe1551     O1556   2.054       .  S
Fe1551     O1562   1.972       .  S
Fe1552     O1555   2.076       .  S
Fe1552     O1559   2.074       .  S
Fe1552     O1563   2.079       .  S
Fe1552     O1568   2.059       .  S
Fe1552     O1562   1.976       .  S
Fe1553     O1571   2.060       .  S
Fe1553     O1558   2.073       .  S
Fe1553     O1565   2.059       .  S
Fe1553     O1554   2.060       .  S
Fe1553     O1562   1.974       .  S
O1554      C1561   1.269       .  A
O1555      C1569   1.272       .  A
O1556      C1561   1.265       .  A
O1557      C1560   1.271       .  A
O1558      C1570   1.270       .  A
O1559      C1572   1.269       .  A
C1560      O1565   1.269       .  A
C1560      C1720   1.483       .  S
C1561      C1843   1.490       .  S
O1563      C1566   1.271       .  A
O1564      C1566   1.270       .  A
C1566      C1874   1.493       .  S
O1567      C1572   1.266       .  A
O1568      C1570   1.267       .  A
C1569      O1571   1.267       .  A
C1569      C1734   1.501       .  S
C1570      C1804   1.486       .  S
C1572      C1745   1.480       .  S
C1573      C1703   1.524       .  S
C1573      C1578   1.435   1_455  A
C1574      C1689   1.518       .  S
C1574      C1575   1.439   1_565  A
C1575      C1650   1.528       .  S
C1576      C1636   1.522   1_455  S
C1576      C2289   1.436   1_445  A
C1577      C1675   1.517       .  S
C1577      C2288   1.436   1_655  A
C1577      C1578   1.433       .  A
C1578      C1661   1.523       .  S
C1579      C2084   1.484       .  S
C1579      C2292   1.401       .  A
C1579      C1584   1.403       .  A
C1580      C2291   1.401   1_545  A
C1580      C1581   1.405       .  A
C1580      H1585   1.083       .  S
C1581      C1773   1.489       .  S
C1581      C1582   1.405       .  A
C1582      C2295   1.398       .  A
C1582      H1586   1.084       .  S
C1583      C1692   1.483       .  S
C1583      C2294   1.398       .  A
C1583      C1584   1.396       .  A
C1584      H1587   1.085       .  S
C1588      C1969   1.488       .  S
C1588      C2301   1.408       .  A
C1588      C1593   1.402       .  A
C1589      C2300   1.408       .  A
C1589      C1590   1.407       .  A
C1589      H1594   1.083       .  S
C1590      C1748   1.487       .  S
C1590      C1591   1.403       .  A
C1591      C1592   1.394       .  A
C1591      H1595   1.084       .  S
C1592      C1678   1.476       .  S
C1592      C2305   1.394       .  A
C1593      C2304   1.394   1_545  A
C1593      H1596   1.084       .  S
C1597      C1759   1.483       .  S
C1597      C1598   1.406       .  A
C1597      C1602   1.398       .  A
C1598      H1603   1.083       .  S
C1599      C2056   1.498       .  S
C1599      C1600   1.408       .  A
C1600      H1604   1.084       .  S
C1601      C1633   1.481       .  S
C1601      C1602   1.396       .  A
C1602      H1605   1.085       .  S
C1606      C1717   1.498       .  S
C1606      C1607   1.407       .  A
C1606      C1611   1.409       .  A
C1607      C1608   1.403       .  A
C1607      H1612   1.082       .  S
C1608      C2000   1.489       .  S
C1608      C1609   1.405       .  A
C1609      C1610   1.397       .  A
C1609      H1613   1.084       .  S
C1610      C1647   1.486       .  S
C1610      C1611   1.400       .  A
C1611      H1614   1.084       .  S
C1615      C1731   1.496       .  S
C1615      C1620   1.406       .  A
C1616      C1617   1.410       .  A
C1616      H1621   1.083       .  S
C1617      C2014   1.494       .  S
C1617      C1618   1.406       .  A
C1618      C1619   1.400       .  A
C1618      H1622   1.084       .  S
C1619      C1706   1.488       .  S
C1620      H1623   1.085       .  S
C1624      C1790   1.485       .  S
C1624      C1625   1.404       .  A
C1624      C1629   1.404       .  A
C1625      C1626   1.404       .  A
C1625      H1630   1.084       .  S
C1626      C2095   1.483       .  S
C1626      C1627   1.401       .  A
C1627      C1628   1.400       .  A
C1627      H1631   1.084       .  S
C1628      C1664   1.484       .  S
C1628      C1629   1.401       .  A
C1629      H1632   1.084       .  S
C1633      C1634   1.403       .  A
C1634      C1635   1.413       .  A
C1634      C1639   1.452       .  S
C1635      C1636   1.426       .  A
C1635      C1642   1.446       .  S
C1637      C1638   1.409       .  A
C1637      C1640   1.446       .  S
C1638      C1641   1.453       .  S
C1639      N1646   1.157       .  T
C1640      N1645   1.157       .  T
C1641      N1643   1.157       .  T
C1642      N1644   1.157       .  T
C1647      C1648   1.405       .  A
C1647      C1652   1.404       .  A
C1648      C1649   1.411       .  A
C1648      C1653   1.452       .  S
C1649      C1650   1.425       .  A
C1649      C1656   1.446       .  S
C1650      C1651   1.427       .  A
C1651      C1652   1.413       .  A
C1651      C1654   1.445       .  S
C1652      C1655   1.452       .  S
C1653      N1660   1.157       .  T
C1654      N1659   1.157       .  T
C1655      N1657   1.157       .  T
C1656      N1658   1.157       .  T
C1661      C1662   1.425       .  A
C1661      C1666   1.424       .  A
C1662      C1663   1.412       .  A
C1662      C1667   1.445       .  S
C1663      C1664   1.405       .  A
C1663      C1670   1.454       .  S
C1664      C1665   1.405       .  A
C1665      C1666   1.412       .  A
C1665      C1668   1.453       .  S
C1666      C1669   1.447       .  S
C1667      N1674   1.157       .  T
C1668      N1673   1.157       .  T
C1669      N1671   1.157       .  T
C1670      N1672   1.157       .  T
C1675      C1676   1.424       .  A
C1675      C2392   1.424       .  A
C1676      C1677   1.408       .  A
C1676      C1681   1.445       .  S
C1677      C1678   1.403       .  A
C1677      C1684   1.453       .  S
C1678      C2391   1.403       .  A
C1679      C2390   1.403   1_545  A
C1679      C1680   1.409       .  A
C1679      C1682   1.452       .  S
C1680      C2387   1.424   1_545  A
C1680      C1683   1.446       .  S
C1681      N1688   1.157       .  T
C1682      N1687   1.157       .  T
C1683      N1685   1.157       .  T
C1684      N1686   1.157       .  T
C1689      C1690   1.424   1_565  A
C1689      C2406   1.424       .  A
C1690      C1691   1.410       .  A
C1690      C1695   1.447       .  S
C1691      C2404   1.405       .  A
C1691      C1698   1.453       .  S
C1692      C2403   1.405       .  A
C1692      C1693   1.406       .  A
C1693      C1694   1.410       .  A
C1693      C1696   1.454       .  S
C1694      C2401   1.424       .  A
C1694      C1697   1.445       .  S
C1695      N1702   1.157       .  T
C1696      N1701   1.157       .  T
C1697      N1699   1.157       .  T
C1698      N1700   1.157       .  T
C1703      C1708   1.423       .  A
C1704      C1705   1.413       .  A
C1704      C1709   1.446       .  S
C1705      C1712   1.452       .  S
C1706      C1707   1.406   1_655  A
C1707      C1708   1.410       .  A
C1707      C1710   1.452       .  S
C1708      C1711   1.445       .  S
C1709      N1716   1.157       .  T
C1710      N1715   1.157       .  T
C1711      N1713   1.157       .  T
C1712      N1714   1.157       .  T
C1717      C1718   1.417       .  A
C1717      C1722   1.420       .  A
C1718      C1719   1.407       .  A
C1718      C1723   1.451       .  S
C1719      C1720   1.413       .  A
C1719      C1726   1.454       .  S
C1720      C1721   1.410       .  A
C1721      C1722   1.413       .  A
C1721      C1724   1.449       .  S
C1722      C1725   1.450       .  S
C1723      N1730   1.157       .  T
C1724      N1729   1.156       .  T
C1725      N1727   1.157       .  T
C1726      N1728   1.157       .  T
C1731      C1732   1.411       .  A
C1731      C1736   1.412       .  A
C1732      C1733   1.414       .  A
C1732      C1737   1.448       .  S
C1733      C1734   1.420       .  A
C1733      C1740   1.449       .  S
C1734      C1735   1.416       .  A
C1735      C1736   1.410       .  A
C1735      C1738   1.447       .  S
C1736      C1739   1.450       .  S
C1738      N1743   1.156       .  T
C1739      N1741   1.157       .  T
C1740      N1742   1.157       .  T
C1745      C1746   1.413       .  A
C1745      C1750   1.412       .  A
C1746      C1747   1.404       .  A
C1746      C1751   1.452       .  S
C1747      C1748   1.412       .  A
C1747      C1754   1.452       .  S
C1748      C1749   1.414       .  A
C1749      C1750   1.414       .  A
C1749      C1752   1.450       .  S
C1750      C1753   1.448       .  S
C1751      N1758   1.157       .  T
C1752      N1757   1.157       .  T
C1753      N1755   1.157       .  T
C1754      N1756   1.157       .  T
C1759      C1760   1.412       .  A
C1759      C1764   1.408       .  A
C1760      C1761   1.414       .  A
C1760      C1765   1.450       .  S
C1761      C1762   1.413       .  A
C1761      C1768   1.449       .  S
C1762      C1763   1.411       .  A
C1763      C1764   1.408       .  A
C1763      C1766   1.448       .  S
C1764      C1767   1.450       .  S
C1765      N1772   1.157       .  T
C1766      N1771   1.156       .  T
C1768      N1770   1.157       .  T
C1773      C1774   1.415       .  A
C1773      C1778   1.411       .  A
C1774      C1775   1.412       .  A
C1774      C1779   1.453       .  S
C1775      C1776   1.420       .  A
C1775      C1782   1.453       .  S
C1776      C1777   1.420       .  A
C1777      C1778   1.406       .  A
C1777      C1780   1.448       .  S
C1778      C1781   1.455       .  S
C1779      N1786   1.158   1_545  T
C1780      N1785   1.155       .  T
C1781      N1783   1.158       .  T
C1782      N1784   1.158       .  T
C1787      C1788   1.418       .  A
C1787      C1792   1.413       .  A
C1788      C1789   1.413       .  A
C1788      C1793   1.452       .  S
C1789      C1790   1.411       .  A
C1789      C1796   1.451       .  S
C1790      C1791   1.410       .  A
C1791      C1792   1.410       .  A
C1791      C1794   1.452       .  S
C1792      C1795   1.445       .  S
C1793      N1800   1.158       .  T
C1794      N1799   1.158       .  T
C1795      N1797   1.155       .  T
C1796      N1798   1.157       .  T
C1801      C1802   1.411       .  A
C1801      C1806   1.410       .  A
C1802      C1803   1.412       .  A
C1802      C1807   1.451       .  S
C1803      C1804   1.415       .  A
C1803      C1810   1.449       .  S
C1804      C1805   1.413       .  A
C1805      C1806   1.407       .  A
C1805      C1808   1.446       .  S
C1806      C1809   1.452       .  S
C1807      N1814   1.158       .  T
C1808      N1813   1.155       .  T
C1810      N1812   1.157       .  T
C1815      C1816   1.413       .  A
C1815      C1820   1.414       .  A
C1816      C1817   1.410       .  A
C1816      C1821   1.446       .  S
C1817      C1818   1.413       .  A
C1817      C1824   1.447       .  S
C1818      C1819   1.416       .  A
C1819      C1820   1.407       .  A
C1819      C1822   1.452       .  S
C1820      C1823   1.453       .  S
C1821      N1828   1.156       .  T
C1822      N1827   1.157       .  T
C1823      N1825   1.157       .  T
C1824      N1826   1.156       .  T
C1829      C1830   1.410       .  A
C1829      C1834   1.409       .  A
C1830      C1831   1.412       .  A
C1830      C1835   1.448       .  S
C1831      C1832   1.417       .  A
C1831      C1838   1.451       .  S
C1832      C1833   1.415       .  A
C1833      C1834   1.409       .  A
C1833      C1836   1.445       .  S
C1834      C1837   1.451       .  S
C1836      N1841   1.156       .  T
C1837      N1839   1.157       .  T
C1838      N1840   1.157       .  T
C1843      C1844   1.422       .  A
C1843      C1848   1.415       .  A
C1844      C1845   1.409       .  A
C1844      C1849   1.452       .  S
C1845      C1846   1.409       .  A
C1845      C1852   1.452       .  S
C1846      C1847   1.412       .  A
C1847      C1848   1.408       .  A
C1847      C1850   1.453       .  S
C1848      C1851   1.449       .  S
C1849      N1856   1.158       .  T
C1850      N1855   1.158       .  T
C1851      N1853   1.156       .  T
C1852      N1854   1.157       .  T
C1857      C1858   1.412       .  A
C1857      C1862   1.412       .  A
C1858      C1859   1.404       .  A
C1858      C1863   1.450       .  S
C1859      C1860   1.408       .  A
C1859      C1866   1.450       .  S
C1860      C1861   1.411       .  A
C1861      C1862   1.412       .  A
C1861      C1864   1.449       .  S
C1862      C1865   1.447       .  S
C1863      N1870   1.156       .  T
C1864      N1869   1.156       .  T
C1865      N1867   1.157       .  T
C1866      N1868   1.157   1_545  T
C1871      C1872   1.411       .  A
C1871      C1876   1.414       .  A
C1872      C1873   1.411       .  A
C1872      C1877   1.452       .  S
C1873      C1874   1.416       .  A
C1873      C1880   1.450       .  S
C1874      C1875   1.417       .  A
C1875      C1876   1.413       .  A
C1875      C1878   1.452       .  S
C1876      C1879   1.452       .  S
C1877      N1884   1.157       .  T
C1878      N1883   1.158       .  T
C1879      N2593   1.157       .  T
C1880      N1882   1.157       .  T
N1881      C2591   1.157   1_545  T
C1885      C1886   1.424       .  A
C1885      C1890   1.420       .  A
C1886      C1887   1.410       .  A
C1886      C1891   1.446       .  S
C1887      C1888   1.401       .  A
C1887      C1894   1.452       .  S
C1888      C1889   1.406       .  A
C1889      C1890   1.405       .  A
C1889      C1892   1.456       .  S
C1890      C1893   1.445       .  S
C1891      N1898   1.157       .  T
C1892      N1897   1.157       .  T
C1893      N1895   1.157       .  T
C1894      N1896   1.157       .  T
C1899      C1904   1.423       .  A
C1900      C1901   1.414       .  A
C1900      C1905   1.444       .  S
C1901      C1908   1.454       .  S
C1902      C1903   1.407   1_455  A
C1903      C1904   1.414       .  A
C1903      C1906   1.450       .  S
C1904      C1907   1.445       .  S
C1905      N1912   1.157       .  T
C1906      N1911   1.156       .  T
C1907      N1909   1.157       .  T
C1908      N1910   1.157       .  T
C1913      C2198   1.495       .  S
C1913      C2626   1.408       .  A
C1913      C1918   1.409   1_545  A
C1914      C2625   1.408       .  A
C1914      C1915   1.414       .  A
C1914      C1919   1.451       .  S
C1915      C2628   1.421       .  A
C1915      C1922   1.445       .  S
C1916      C2627   1.421       .  A
C1916      C1917   1.422   1_545  A
C1917      C1918   1.414       .  A
C1917      C1920   1.445       .  S
C1918      C1921   1.451       .  S
C1919      N1926   1.156       .  T
C1920      N1925   1.157       .  T
C1921      N1923   1.156       .  T
C1922      N1924   1.157       .  T
C1927      C1932   1.423       .  A
C1928      C1929   1.413       .  A
C1928      C1933   1.446       .  S
C1929      C1936   1.453       .  S
C1930      C1931   1.407   1_455  A
C1931      C1932   1.413       .  A
C1931      C1934   1.454       .  S
C1932      C1935   1.445       .  S
C1933      N1940   1.157       .  T
C1934      N1939   1.157       .  T
C1935      N1937   1.157       .  T
C1936      N1938   1.157       .  T
C1941      C1942   1.423       .  A
C1941      C1946   1.423       .  A
C1942      C1943   1.403       .  A
C1942      C1947   1.443       .  S
C1943      C1944   1.401       .  A
C1943      C1950   1.455       .  S
C1944      C1945   1.402       .  A
C1945      C1946   1.409       .  A
C1945      C1948   1.451       .  S
C1946      C1949   1.448       .  S
C1947      N1954   1.157       .  T
C1948      N1953   1.157       .  T
C1949      N1951   1.157       .  T
C1950      N1952   1.157       .  T
C1955      C1956   1.406       .  A
C1955      C2672   1.406       .  A
C1956      C1957   1.414       .  A
C1956      C1961   1.452       .  S
C1957      C2670   1.425       .  A
C1957      C1964   1.446       .  S
C1958      C2669   1.425   1_545  A
C1958      C1959   1.425       .  A
C1959      C1960   1.415       .  A
C1959      C1962   1.443       .  S
C1960      C2667   1.406   1_545  A
C1960      C1963   1.455       .  S
C1961      N1968   1.157       .  T
C1962      N1967   1.156       .  T
C1963      N1965   1.157       .  T
C1964      N1966   1.157       .  T
C1969      C1970   1.414       .  A
C1969      C1974   1.415       .  A
C1970      C1971   1.412       .  A
C1970      C1975   1.448       .  S
C1971      C1972   1.410       .  A
C1971      C1978   1.449       .  S
C1972      C1973   1.410       .  A
C1973      C1974   1.405       .  A
C1973      C1976   1.454       .  S
C1974      C1977   1.451       .  S
C1975      N1982   1.156       .  T
C1976      N1981   1.157   1_556  T
C1977      N1979   1.157       .  T
C1978      N1980   1.157       .  T
C1983      C1984   1.411       .  A
C1983      C1988   1.408       .  A
C1984      C1985   1.411       .  A
C1984      C1989   1.449       .  S
C1985      C1986   1.412       .  A
C1985      C1992   1.449       .  S
C1986      C1987   1.417       .  A
C1987      C1988   1.412       .  A
C1987      C1990   1.449       .  S
C1988      C1991   1.450   1_545  S
C1989      N1996   1.157       .  T
C1990      N1995   1.157       .  T
C1991      N2705   1.157       .  T
C1992      N1994   1.157       .  T
N1993      C2703   1.157       .  T
C1997      C1998   1.410       .  A
C1997      C2002   1.409       .  A
C1998      C1999   1.406       .  A
C1998      C2003   1.449       .  S
C1999      C2000   1.411       .  A
C1999      C2006   1.451       .  S
C2000      C2001   1.413       .  A
C2001      C2002   1.411       .  A
C2001      C2004   1.447       .  S
C2002      C2005   1.446       .  S
C2003      N2010   1.156   1_556  T
C2004      N2009   1.156       .  T
C2005      N2007   1.156       .  T
C2006      N2008   1.157       .  T
C2011      C2012   1.409       .  A
C2011      C2016   1.408       .  A
C2012      C2013   1.409       .  A
C2012      C2017   1.452       .  S
C2013      C2014   1.415       .  A
C2013      C2020   1.448       .  S
C2014      C2015   1.415       .  A
C2015      C2016   1.413       .  A
C2015      C2018   1.447       .  S
C2016      C2019   1.448       .  S
C2017      N2024   1.157   1_556  T
C2018      N2023   1.156       .  T
C2019      N2021   1.157       .  T
C2025      C2026   1.427       .  A
C2025      C2030   1.424       .  A
C2026      C2027   1.419       .  A
C2026      C2031   1.451       .  S
C2027      C2028   1.418       .  A
C2027      C2034   1.454       .  S
C2028      C2029   1.416       .  A
C2029      C2030   1.403       .  A
C2029      C2032   1.454       .  S
C2030      C2033   1.453       .  S
C2031      N2038   1.158       .  T
C2032      N2037   1.157       .  T
C2033      N2035   1.158       .  T
C2034      N2036   1.158       .  T
C2039      C2040   1.415       .  A
C2039      C2044   1.415       .  A
C2040      C2041   1.411       .  A
C2040      C2045   1.452       .  S
C2041      C2042   1.412       .  A
C2041      C2048   1.451       .  S
C2042      C2043   1.415       .  A
C2043      C2044   1.412       .  A
C2043      C2046   1.452       .  S
C2044      C2047   1.452       .  S
C2045      N2052   1.158       .  T
C2046      N2051   1.157       .  T
C2048      N2050   1.157       .  T
C2053      C2054   1.412       .  A
C2053      C2058   1.418       .  A
C2054      C2055   1.412       .  A
C2054      C2059   1.448       .  S
C2055      C2056   1.417       .  A
C2055      C2062   1.453       .  S
C2056      C2057   1.416       .  A
C2057      C2058   1.414       .  A
C2057      C2060   1.452       .  S
C2058      C2061   1.452       .  S
C2059      N2066   1.156       .  T
C2061      N2063   1.157       .  T
C2062      N2064   1.158       .  T
C2067      C2068   1.413       .  A
C2067      C2072   1.418       .  A
C2068      C2069   1.408       .  A
C2068      C2073   1.449       .  S
C2069      C2070   1.410       .  A
C2069      C2076   1.452       .  S
C2070      C2071   1.408       .  A
C2071      C2072   1.413       .  A
C2071      C2074   1.450       .  S
C2072      C2075   1.446       .  S
C2074      N2079   1.157       .  T
C2075      N2077   1.156       .  T
C2076      N2078   1.157   1_554  T
C2081      C2082   1.411       .  A
C2081      C2086   1.419       .  A
C2082      C2083   1.408       .  A
C2082      C2087   1.450       .  S
C2083      C2084   1.411       .  A
C2083      C2090   1.449       .  S
C2084      C2085   1.406       .  A
C2085      C2086   1.410       .  A
C2085      C2088   1.450       .  S
C2086      C2089   1.450       .  S
C2087      N2094   1.157       .  T
C2088      N2805   1.157       .  T
C2089      N2091   1.157       .  T
C2090      N2092   1.157       .  T
N2093      C2800   1.157       .  T
C2095      C2096   1.412       .  A
C2095      C2100   1.412       .  A
C2096      C2097   1.410       .  A
C2096      C2101   1.451       .  S
C2097      C2098   1.411       .  A
C2097      C2104   1.449       .  S
C2098      C2099   1.413       .  A
C2099      C2100   1.411       .  A
C2099      C2102   1.452       .  S
C2100      C2103   1.451       .  S
C2101      N2108   1.157       .  T
C2102      N2107   1.158       .  T
C2103      N2105   1.157       .  T
C2104      N2106   1.157       .  T
C2109      C2110   1.409       .  A
C2109      C2114   1.415       .  A
C2110      C2111   1.404       .  A
C2110      C2115   1.449       .  S
C2111      C2112   1.410       .  A
C2111      C2118   1.452       .  S
C2112      C2113   1.411       .  A
C2113      C2114   1.413       .  A
C2113      C2116   1.450       .  S
C2114      C2117   1.450       .  S
C2115      N2122   1.157       .  T
C2116      N2121   1.157       .  T
C2117      N2119   1.157       .  T
C2118      N2120   1.157   1_554  T
C2123      C2124   1.418       .  A
C2123      C2128   1.420       .  A
C2124      C2125   1.416       .  A
C2124      C2129   1.446       .  S
C2125      C2126   1.410       .  A
C2125      C2132   1.450       .  S
C2126      C2127   1.410       .  A
C2127      C2128   1.406       .  A
C2127      C2130   1.456       .  S
C2128      C2131   1.450       .  S
C2129      N2136   1.155       .  T
C2130      N2135   1.158       .  T
C2131      N2133   1.156       .  T
C2132      N2134   1.157       .  T
Fe2137     O2153   2.082       .  S
Fe2137     O2143   2.065       .  S
Fe2137     O2150   2.055   1_556  S
Fe2137     O2142   2.083   1_556  S
Fe2137     O2148   1.978       .  S
Fe2138     O2141   2.075       .  S
Fe2138     O2145   2.061       .  S
Fe2138     O2149   2.076   1_556  S
Fe2138     O2154   2.060   1_556  S
Fe2138     O2148   1.975       .  S
Fe2139     O2157   2.051       .  S
Fe2139     O2144   2.066   1_556  S
Fe2139     O2151   2.066       .  S
Fe2139     O2140   2.045   1_556  S
Fe2139     O2148   1.974       .  S
O2140      C2147   1.265       .  A
O2141      C2155   1.271       .  A
O2142      C2147   1.271       .  A
O2143      C2146   1.268       .  A
O2144      C2156   1.268       .  A
O2145      C2158   1.269       .  A
C2146      O2151   1.269       .  A
C2146      C2810   1.480       .  S
C2147      C2838   1.481       .  S
O2149      C2152   1.269       .  A
O2150      C2152   1.266       .  A
C2152      C2782   1.477       .  S
O2153      C2158   1.274       .  A
O2154      C2156   1.268       .  A
C2155      O2157   1.265       .  A
C2155      C2793   1.483       .  S
C2156      C2824   1.474       .  S
C2158      C2765   1.494       .  S
Fe2159     O2175   2.064   1_554  S
Fe2159     O2165   2.078   1_554  S
Fe2159     O2172   2.058       .  S
Fe2159     O2164   2.063       .  S
Fe2159     O2170   1.967       .  S
Fe2160     O2163   2.060   1_554  S
Fe2160     O2167   2.080   1_554  S
Fe2160     O2171   2.067       .  S
Fe2160     O2176   2.080       .  S
Fe2160     O2170   1.966       .  S
Fe2161     O2179   2.054       .  S
Fe2161     O2166   2.068   1_556  S
Fe2161     O2173   2.057       .  S
Fe2161     O2162   2.061   1_556  S
Fe2161     O2170   1.967   1_556  S
O2162      C2169   1.269       .  A
O2163      C2177   1.266       .  A
O2164      C2169   1.269       .  A
O2165      C2168   1.268       .  A
O2166      C2178   1.272       .  A
O2167      C2180   1.275       .  A
C2168      O2173   1.266       .  A
C2168      C2709   1.477       .  S
C2169      C2740   1.498       .  S
O2171      C2174   1.266       .  A
O2172      C2174   1.265       .  A
C2174      C2754   1.485       .  S
O2175      C2180   1.273       .  A
O2176      C2178   1.275       .  A
C2177      O2179   1.263       .  A
C2177      C2684   1.474       .  S
C2178      C2698   1.487       .  S
C2180      C2723   1.478       .  S
C2181      C2611   1.525       .  S
C2181      C2182   1.434       .  A
C2182      C2670   1.527       .  S
C2183      C2653   1.510       .  S
C2183      C2184   1.432       .  A
C2184      C2639   1.521       .  S
C2185      C2628   1.522       .  S
C2185      C2186   1.434       .  A
C2186      C2597   1.509       .  S
C2187      C2695   1.486       .  S
C2187      C2188   1.404       .  A
C2188      H2193   1.084       .  S
C2189      C2667   1.490       .  S
C2189      C2190   1.404       .  A
C2190      C2191   1.406       .  A
C2190      H2194   1.084       .  S
C2191      C2583   1.488       .  S
C2191      C2192   1.405       .  A
C2192      H2195   1.084       .  S
C2196      C2821   1.485       .  S
C2196      C2197   1.407       .  A
C2197      C2198   1.403   1_565  A
C2197      H2202   1.084       .  S
C2199      C2200   1.406       .  A
C2199      H2203   1.084       .  S
C2200      C2572   1.481       .  S
C2200      C2201   1.400       .  A
C2201      H2204   1.084       .  S
C2205      C2558   1.482       .  S
C2205      C2206   1.408       .  A
C2205      C2210   1.395       .  A
C2206      C2207   1.421       .  A
C2206      H2211   1.075       .  S
C2207      C2737   1.534       .  S
C2207      C2208   1.413       .  A
C2208      C2209   1.392       .  A
C2208      H2212   1.072       .  S
C2209      C2600   1.475       .  S
C2209      C2210   1.386       .  A
C2210      H2213   1.085       .  S
C2214      C2541   1.487       .  S
C2214      C2215   1.403       .  A
C2214      C2219   1.402       .  A
C2215      H2220   1.083       .  S
C2216      C2779   1.496       .  S
C2216      C2217   1.412       .  A
C2217      H2221   1.084       .  S
C2218      C2614   1.493       .  S
C2218      C2219   1.398   1_455  A
C2219      H2222   1.085       .  S
C2223      C2530   1.494       .  S
C2223      C2224   1.412       .  A
C2223      C2228   1.398       .  A
C2224      C2225   1.413       .  A
C2224      H2229   1.082       .  S
C2225      C2835   1.503       .  S
C2225      C2226   1.405       .  A
C2226      C2227   1.397       .  A
C2226      H2230   1.084       .  S
C2227      C2656   1.471       .  S
C2227      C2228   1.389       .  A
C2228      H2231   1.085       .  S
C2232      C2513   1.482       .  S
C2232      C2237   1.400       .  A
C2233      C2234   1.403   1_455  A
C2233      H2238   1.084       .  S
C2234      C2751   1.492       .  S
C2234      C2235   1.408       .  A
C2235      C2236   1.405   1_655  A
C2235      H2239   1.084       .  S
C2236      C2642   1.488       .  S
C2237      H2240   1.084       .  S
Fe2241     O2257   2.069       .  S
Fe2241     O2247   2.074       .  S
Fe2241     O2254   2.070       .  S
Fe2241     O2246   2.058       .  S
Fe2241     O2252   1.976       .  S
Fe2242     O2245   2.054       .  S
Fe2242     O2249   2.061       .  S
Fe2242     O2253   2.051       .  S
Fe2242     O2258   2.076       .  S
Fe2242     O2252   1.976       .  S
Fe2243     O2261   2.074       .  S
Fe2243     O2248   2.067       .  S
Fe2243     O2255   2.067       .  S
Fe2243     O2244   2.080       .  S
Fe2243     O2252   1.972       .  S
O2244      C2251   1.269       .  A
O2245      C2259   1.266       .  A
O2246      C2251   1.263       .  A
O2247      C2250   1.274       .  A
O2248      C2260   1.272       .  A
O2249      C2262   1.266       .  A
C2250      O2255   1.271       .  A
C2250      C2544   1.492       .  S
C2251      C2474   1.484       .  S
O2253      C2256   1.269       .  A
O2254      C2256   1.270       .  A
C2256      C2488   1.499       .  S
O2257      C2262   1.267       .  A
O2258      C2260   1.271       .  A
C2259      O2261   1.271       .  A
C2259      C2527   1.484       .  S
C2260      C2499   1.493       .  S
C2262      C2569   1.477       .  S
Fe2263     O2279   2.056       .  S
Fe2263     O2269   2.070       .  S
Fe2263     O2276   2.063       .  S
Fe2263     O2268   2.054       .  S
Fe2263     O2274   1.972       .  S
Fe2264     O2267   2.076       .  S
Fe2264     O2271   2.074       .  S
Fe2264     O2275   2.079       .  S
Fe2264     O2280   2.059       .  S
Fe2264     O2274   1.976       .  S
Fe2265     O2283   2.060       .  S
Fe2265     O2270   2.073       .  S
Fe2265     O2277   2.059       .  S
Fe2265     O2266   2.060       .  S
Fe2265     O2274   1.974       .  S
O2266      C2273   1.269       .  A
O2267      C2281   1.272       .  A
O2268      C2273   1.265       .  A
O2269      C2272   1.271       .  A
O2270      C2282   1.270       .  A
O2271      C2284   1.269       .  A
C2272      O2277   1.269       .  A
C2272      C2432   1.483       .  S
C2273      C2555   1.490       .  S
O2275      C2278   1.271       .  A
O2276      C2278   1.270       .  A
C2278      C2586   1.493       .  S
O2279      C2284   1.266       .  A
O2280      C2282   1.267       .  A
C2281      O2283   1.267       .  A
C2281      C2446   1.501       .  S
C2282      C2516   1.486       .  S
C2284      C2457   1.480       .  S
C2285      C2415   1.524       .  S
C2285      C2290   1.435   1_455  A
C2286      C2401   1.518       .  S
C2286      C2287   1.439       .  A
C2287      C2362   1.528       .  S
C2288      C2348   1.522   1_455  S
C2289      C2387   1.517       .  S
C2289      C2290   1.433       .  A
C2290      C2373   1.523       .  S
C2291      C2796   1.484       .  S
C2291      C2296   1.403       .  A
C2292      C2293   1.405       .  A
C2292      H2297   1.083       .  S
C2293      C2485   1.489       .  S
C2293      C2294   1.405       .  A
C2294      H2298   1.084       .  S
C2295      C2404   1.483       .  S
C2295      C2296   1.396   1_545  A
C2296      H2299   1.085       .  S
C2300      C2681   1.488       .  S
C2300      C2305   1.402       .  A
C2301      C2302   1.407   1_545  A
C2301      H2306   1.083       .  S
C2302      C2460   1.487       .  S
C2302      C2303   1.403       .  A
C2303      C2304   1.394       .  A
C2303      H2307   1.084       .  S
C2304      C2390   1.476       .  S
C2305      H2308   1.084       .  S
C2309      C2471   1.483       .  S
C2309      C2310   1.406       .  A
C2309      C2314   1.398       .  A
C2310      H2315   1.083       .  S
C2311      C2768   1.498       .  S
C2311      C2312   1.408       .  A
C2312      H2316   1.084       .  S
C2313      C2345   1.481       .  S
C2313      C2314   1.396       .  A
C2314      H2317   1.085       .  S
C2318      C2429   1.498       .  S
C2318      C2319   1.407       .  A
C2318      C2323   1.409       .  A
C2319      C2320   1.403       .  A
C2319      H2324   1.082       .  S
C2320      C2712   1.489       .  S
C2320      C2321   1.405       .  A
C2321      C2322   1.397       .  A
C2321      H2325   1.084       .  S
C2322      C2359   1.486       .  S
C2322      C2323   1.400       .  A
C2323      H2326   1.084       .  S
C2327      C2443   1.496       .  S
C2327      C2332   1.406       .  A
C2328      C2329   1.410       .  A
C2328      H2333   1.083       .  S
C2329      C2726   1.494       .  S
C2329      C2330   1.406       .  A
C2330      C2331   1.400       .  A
C2330      H2334   1.084       .  S
C2331      C2418   1.488       .  S
C2332      H2335   1.085       .  S
C2336      C2502   1.485       .  S
C2336      C2337   1.404       .  A
C2336      C2341   1.404       .  A
C2337      C2338   1.404       .  A
C2337      H2342   1.084       .  S
C2338      C2807   1.483       .  S
C2338      C2339   1.401       .  A
C2339      C2340   1.400       .  A
C2339      H2343   1.084       .  S
C2340      C2376   1.484       .  S
C2340      C2341   1.401       .  A
C2341      H2344   1.084       .  S
C2345      C2346   1.403       .  A
C2346      C2347   1.413       .  A
C2346      C2351   1.452       .  S
C2347      C2348   1.426       .  A
C2347      C2354   1.446       .  S
C2349      C2350   1.409       .  A
C2349      C2352   1.446       .  S
C2350      C2353   1.453       .  S
C2351      N2358   1.157       .  T
C2352      N2357   1.157       .  T
C2353      N2355   1.157       .  T
C2354      N2356   1.157       .  T
C2359      C2360   1.405       .  A
C2359      C2364   1.404       .  A
C2360      C2361   1.411       .  A
C2360      C2365   1.452       .  S
C2361      C2362   1.425       .  A
C2361      C2368   1.446       .  S
C2362      C2363   1.427       .  A
C2363      C2364   1.413       .  A
C2363      C2366   1.445       .  S
C2364      C2367   1.452       .  S
C2365      N2372   1.157       .  T
C2366      N2371   1.157       .  T
C2367      N2369   1.157       .  T
C2368      N2370   1.157       .  T
C2373      C2374   1.425       .  A
C2373      C2378   1.424       .  A
C2374      C2375   1.412       .  A
C2374      C2379   1.445       .  S
C2375      C2376   1.405       .  A
C2375      C2382   1.454       .  S
C2376      C2377   1.405       .  A
C2377      C2378   1.412       .  A
C2377      C2380   1.453       .  S
C2378      C2381   1.447       .  S
C2379      N2386   1.157       .  T
C2380      N2385   1.157       .  T
C2381      N2383   1.157       .  T
C2382      N2384   1.157       .  T
C2387      C2388   1.424       .  A
C2388      C2389   1.408       .  A
C2388      C2393   1.445       .  S
C2389      C2390   1.403       .  A
C2389      C2396   1.453       .  S
C2391      C2392   1.409       .  A
C2391      C2394   1.452       .  S
C2392      C2395   1.446       .  S
C2393      N2400   1.157       .  T
C2394      N2399   1.157       .  T
C2395      N2397   1.157       .  T
C2396      N2398   1.157       .  T
C2401      C2402   1.424       .  A
C2402      C2403   1.410       .  A
C2402      C2407   1.447       .  S
C2403      C2410   1.453       .  S
C2404      C2405   1.406   1_545  A
C2405      C2406   1.410       .  A
C2405      C2408   1.454       .  S
C2406      C2409   1.445       .  S
C2407      N2414   1.157       .  T
C2408      N2413   1.157       .  T
C2409      N2411   1.157       .  T
C2410      N2412   1.157       .  T
C2415      C2420   1.423       .  A
C2416      C2417   1.413       .  A
C2416      C2421   1.446       .  S
C2417      C2424   1.452       .  S
C2418      C2419   1.406   1_655  A
C2419      C2420   1.410       .  A
C2419      C2422   1.452       .  S
C2420      C2423   1.445       .  S
C2421      N2428   1.157       .  T
C2422      N2427   1.157       .  T
C2423      N2425   1.157       .  T
C2424      N2426   1.157       .  T
C2429      C2430   1.417       .  A
C2429      C2434   1.420       .  A
C2430      C2431   1.407       .  A
C2430      C2435   1.451       .  S
C2431      C2432   1.413       .  A
C2431      C2438   1.454       .  S
C2432      C2433   1.410       .  A
C2433      C2434   1.413       .  A
C2433      C2436   1.449       .  S
C2434      C2437   1.450       .  S
C2435      N2442   1.157       .  T
C2436      N2441   1.156       .  T
C2437      N2439   1.157       .  T
C2438      N2440   1.157       .  T
C2443      C2444   1.411       .  A
C2443      C2448   1.412       .  A
C2444      C2445   1.414       .  A
C2444      C2449   1.448       .  S
C2445      C2446   1.420       .  A
C2445      C2452   1.449       .  S
C2446      C2447   1.416       .  A
C2447      C2448   1.410       .  A
C2447      C2450   1.447       .  S
C2448      C2451   1.450       .  S
C2450      N2455   1.156       .  T
C2451      N2453   1.157       .  T
C2452      N2454   1.157       .  T
C2457      C2458   1.413       .  A
C2457      C2462   1.412       .  A
C2458      C2459   1.404       .  A
C2458      C2463   1.452       .  S
C2459      C2460   1.412       .  A
C2459      C2466   1.452       .  S
C2460      C2461   1.414       .  A
C2461      C2462   1.414       .  A
C2461      C2464   1.450       .  S
C2462      C2465   1.448       .  S
C2463      N2470   1.157       .  T
C2464      N2469   1.157       .  T
C2465      N2467   1.157       .  T
C2466      N2468   1.157   1_565  T
C2471      C2472   1.412       .  A
C2471      C2476   1.408       .  A
C2472      C2473   1.414       .  A
C2472      C2477   1.450       .  S
C2473      C2474   1.413       .  A
C2473      C2480   1.449       .  S
C2474      C2475   1.411       .  A
C2475      C2476   1.408       .  A
C2475      C2478   1.448       .  S
C2476      C2479   1.450       .  S
C2477      N2484   1.157       .  T
C2478      N2483   1.156       .  T
C2480      N2482   1.157       .  T
C2485      C2486   1.415       .  A
C2485      C2490   1.411       .  A
C2486      C2487   1.412       .  A
C2486      C2491   1.453       .  S
C2487      C2488   1.420       .  A
C2487      C2494   1.453       .  S
C2488      C2489   1.420       .  A
C2489      C2490   1.406       .  A
C2489      C2492   1.448       .  S
C2490      C2493   1.455       .  S
C2491      N2498   1.158       .  T
C2492      N2497   1.155       .  T
C2493      N2495   1.158       .  T
C2494      N2496   1.158       .  T
C2499      C2500   1.418       .  A
C2499      C2504   1.413       .  A
C2500      C2501   1.413       .  A
C2500      C2505   1.452       .  S
C2501      C2502   1.411       .  A
C2501      C2508   1.451       .  S
C2502      C2503   1.410       .  A
C2503      C2504   1.410       .  A
C2503      C2506   1.452       .  S
C2504      C2507   1.445       .  S
C2505      N2512   1.158       .  T
C2506      N2511   1.158       .  T
C2507      N2509   1.155       .  T
C2508      N2510   1.157       .  T
C2513      C2514   1.411       .  A
C2513      C2518   1.410       .  A
C2514      C2515   1.412       .  A
C2514      C2519   1.451       .  S
C2515      C2516   1.415       .  A
C2515      C2522   1.449       .  S
C2516      C2517   1.413       .  A
C2517      C2518   1.407       .  A
C2517      C2520   1.446       .  S
C2518      C2521   1.452       .  S
C2519      N2526   1.158       .  T
C2520      N2525   1.155       .  T
C2522      N2524   1.157       .  T
C2527      C2528   1.413       .  A
C2527      C2532   1.414       .  A
C2528      C2529   1.410       .  A
C2528      C2533   1.446       .  S
C2529      C2530   1.413       .  A
C2529      C2536   1.447       .  S
C2530      C2531   1.416       .  A
C2531      C2532   1.407       .  A
C2531      C2534   1.452       .  S
C2532      C2535   1.453       .  S
C2533      N2540   1.156       .  T
C2534      N2539   1.157       .  T
C2535      N2537   1.157       .  T
C2536      N2538   1.156       .  T
C2541      C2542   1.410       .  A
C2541      C2546   1.409       .  A
C2542      C2543   1.412       .  A
C2542      C2547   1.448       .  S
C2543      C2544   1.417       .  A
C2543      C2550   1.451       .  S
C2544      C2545   1.415       .  A
C2545      C2546   1.409       .  A
C2545      C2548   1.445       .  S
C2546      C2549   1.451       .  S
C2548      N2553   1.156       .  T
C2549      N2551   1.157       .  T
C2550      N2552   1.157       .  T
C2555      C2556   1.422       .  A
C2555      C2560   1.415       .  A
C2556      C2557   1.409       .  A
C2556      C2561   1.452       .  S
C2557      C2558   1.409       .  A
C2557      C2564   1.452       .  S
C2558      C2559   1.412       .  A
C2559      C2560   1.408       .  A
C2559      C2562   1.453       .  S
C2560      C2563   1.449       .  S
C2561      N2568   1.158       .  T
C2562      N2567   1.158       .  T
C2563      N2565   1.156       .  T
C2564      N2566   1.157       .  T
C2569      C2570   1.412       .  A
C2569      C2574   1.412       .  A
C2570      C2571   1.404       .  A
C2570      C2575   1.450       .  S
C2571      C2572   1.408       .  A
C2571      C2578   1.450       .  S
C2572      C2573   1.411       .  A
C2573      C2574   1.412       .  A
C2573      C2576   1.449       .  S
C2574      C2577   1.447       .  S
C2575      N2582   1.156       .  T
C2576      N2581   1.156       .  T
C2577      N2579   1.157       .  T
C2578      N2580   1.157       .  T
C2583      C2584   1.411       .  A
C2583      C2588   1.414       .  A
C2584      C2585   1.411       .  A
C2584      C2589   1.452       .  S
C2585      C2586   1.416       .  A
C2585      C2592   1.450       .  S
C2586      C2587   1.417       .  A
C2587      C2588   1.413       .  A
C2587      C2590   1.452       .  S
C2588      C2591   1.452       .  S
C2589      N2596   1.157       .  T
C2590      N2595   1.158       .  T
C2592      N2594   1.157       .  T
C2597      C2598   1.424       .  A
C2597      C2602   1.420       .  A
C2598      C2599   1.410       .  A
C2598      C2603   1.446       .  S
C2599      C2600   1.401       .  A
C2599      C2606   1.452       .  S
C2600      C2601   1.406       .  A
C2601      C2602   1.405       .  A
C2601      C2604   1.456       .  S
C2602      C2605   1.445       .  S
C2603      N2610   1.157       .  T
C2604      N2609   1.157       .  T
C2605      N2607   1.157       .  T
C2606      N2608   1.157       .  T
C2611      C2616   1.423       .  A
C2612      C2613   1.414       .  A
C2612      C2617   1.444       .  S
C2613      C2620   1.454       .  S
C2614      C2615   1.407   1_455  A
C2615      C2616   1.414       .  A
C2615      C2618   1.450       .  S
C2616      C2619   1.445       .  S
C2617      N2624   1.157       .  T
C2618      N2623   1.156       .  T
C2619      N2621   1.157       .  T
C2620      N2622   1.157       .  T
C2625      C2630   1.409       .  A
C2626      C2627   1.414       .  A
C2626      C2631   1.451       .  S
C2627      C2634   1.445       .  S
C2628      C2629   1.422       .  A
C2629      C2630   1.414       .  A
C2629      C2632   1.445       .  S
C2630      C2633   1.451       .  S
C2631      N2638   1.156       .  T
C2632      N2637   1.157       .  T
C2633      N2635   1.156       .  T
C2634      N2636   1.157       .  T
C2639      C2644   1.423       .  A
C2640      C2641   1.413       .  A
C2640      C2645   1.446       .  S
C2641      C2648   1.453       .  S
C2642      C2643   1.407   1_455  A
C2643      C2644   1.413       .  A
C2643      C2646   1.454       .  S
C2644      C2647   1.445       .  S
C2645      N2652   1.157       .  T
C2646      N2651   1.157       .  T
C2647      N2649   1.157       .  T
C2648      N2650   1.157       .  T
C2653      C2654   1.423       .  A
C2653      C2658   1.423       .  A
C2654      C2655   1.403       .  A
C2654      C2659   1.443       .  S
C2655      C2656   1.401       .  A
C2655      C2662   1.455       .  S
C2656      C2657   1.402       .  A
C2657      C2658   1.409       .  A
C2657      C2660   1.451       .  S
C2658      C2661   1.448       .  S
C2659      N2666   1.157       .  T
C2660      N2665   1.157       .  T
C2661      N2663   1.157       .  T
C2662      N2664   1.157       .  T
C2667      C2668   1.406       .  A
C2668      C2669   1.414       .  A
C2668      C2673   1.452       .  S
C2669      C2676   1.446       .  S
C2670      C2671   1.425       .  A
C2671      C2672   1.415       .  A
C2671      C2674   1.443       .  S
C2672      C2675   1.455       .  S
C2673      N2680   1.157       .  T
C2674      N2679   1.156       .  T
C2675      N2677   1.157       .  T
C2676      N2678   1.157       .  T
C2681      C2682   1.414       .  A
C2681      C2686   1.415       .  A
C2682      C2683   1.412       .  A
C2682      C2687   1.448       .  S
C2683      C2684   1.410       .  A
C2683      C2690   1.449       .  S
C2684      C2685   1.410       .  A
C2685      C2686   1.405       .  A
C2685      C2688   1.454       .  S
C2686      C2689   1.451       .  S
C2687      N2694   1.156       .  T
C2688      N2693   1.157   1_556  T
C2689      N2691   1.157       .  T
C2690      N2692   1.157       .  T
C2695      C2696   1.411       .  A
C2695      C2700   1.408       .  A
C2696      C2697   1.411       .  A
C2696      C2701   1.449       .  S
C2697      C2698   1.412       .  A
C2697      C2704   1.449       .  S
C2698      C2699   1.417       .  A
C2699      C2700   1.412       .  A
C2699      C2702   1.449       .  S
C2700      C2703   1.450       .  S
C2701      N2708   1.157       .  T
C2702      N2707   1.157       .  T
C2704      N2706   1.157       .  T
C2709      C2710   1.410       .  A
C2709      C2714   1.409       .  A
C2710      C2711   1.406       .  A
C2710      C2715   1.449       .  S
C2711      C2712   1.411       .  A
C2711      C2718   1.451       .  S
C2712      C2713   1.413       .  A
C2713      C2714   1.411       .  A
C2713      C2716   1.447       .  S
C2714      C2717   1.446       .  S
C2715      N2722   1.156   1_556  T
C2716      N2721   1.156       .  T
C2717      N2719   1.156       .  T
C2718      N2720   1.157       .  T
C2723      C2724   1.409       .  A
C2723      C2728   1.408       .  A
C2724      C2725   1.409       .  A
C2724      C2729   1.452       .  S
C2725      C2726   1.415       .  A
C2725      C2732   1.448       .  S
C2726      C2727   1.415       .  A
C2727      C2728   1.413       .  A
C2727      C2730   1.447       .  S
C2728      C2731   1.448       .  S
C2729      N2736   1.157   1_556  T
C2730      N2735   1.156       .  T
C2731      N2733   1.157       .  T
C2737      C2738   1.427       .  A
C2737      C2742   1.424       .  A
C2738      C2739   1.419       .  A
C2738      C2743   1.451       .  S
C2739      C2740   1.418       .  A
C2739      C2746   1.454       .  S
C2740      C2741   1.416       .  A
C2741      C2742   1.403       .  A
C2741      C2744   1.454       .  S
C2742      C2745   1.453       .  S
C2743      N2750   1.158       .  T
C2744      N2749   1.157       .  T
C2745      N2747   1.158       .  T
C2746      N2748   1.158       .  T
C2751      C2752   1.415       .  A
C2751      C2756   1.415       .  A
C2752      C2753   1.411       .  A
C2752      C2757   1.452       .  S
C2753      C2754   1.412       .  A
C2753      C2760   1.451       .  S
C2754      C2755   1.415       .  A
C2755      C2756   1.412       .  A
C2755      C2758   1.452       .  S
C2756      C2759   1.452       .  S
C2757      N2764   1.158       .  T
C2758      N2763   1.157       .  T
C2760      N2762   1.157       .  T
C2765      C2766   1.412       .  A
C2765      C2770   1.418       .  A
C2766      C2767   1.412       .  A
C2766      C2771   1.448       .  S
C2767      C2768   1.417       .  A
C2767      C2774   1.453       .  S
C2768      C2769   1.416       .  A
C2769      C2770   1.414       .  A
C2769      C2772   1.452       .  S
C2770      C2773   1.452       .  S
C2771      N2778   1.156       .  T
C2773      N2775   1.157       .  T
C2774      N2776   1.158       .  T
C2779      C2780   1.413       .  A
C2779      C2784   1.418       .  A
C2780      C2781   1.408       .  A
C2780      C2785   1.449       .  S
C2781      C2782   1.410       .  A
C2781      C2788   1.452       .  S
C2782      C2783   1.408       .  A
C2783      C2784   1.413       .  A
C2783      C2786   1.450       .  S
C2784      C2787   1.446       .  S
C2786      N2791   1.157       .  T
C2787      N2789   1.156       .  T
C2788      N2790   1.157   1_554  T
C2793      C2794   1.411       .  A
C2793      C2798   1.419       .  A
C2794      C2795   1.408       .  A
C2794      C2799   1.450       .  S
C2795      C2796   1.411       .  A
C2795      C2802   1.449       .  S
C2796      C2797   1.406       .  A
C2797      C2798   1.410       .  A
C2797      C2800   1.450   1_565  S
C2798      C2801   1.450       .  S
C2799      N2806   1.157       .  T
C2801      N2803   1.157       .  T
C2802      N2804   1.157       .  T
C2807      C2808   1.412       .  A
C2807      C2812   1.412       .  A
C2808      C2809   1.410       .  A
C2808      C2813   1.451       .  S
C2809      C2810   1.411       .  A
C2809      C2816   1.449       .  S
C2810      C2811   1.413       .  A
C2811      C2812   1.411       .  A
C2811      C2814   1.452       .  S
C2812      C2815   1.451       .  S
C2813      N2820   1.157       .  T
C2814      N2819   1.158       .  T
C2815      N2817   1.157       .  T
C2816      N2818   1.157       .  T
C2821      C2822   1.409       .  A
C2821      C2826   1.415       .  A
C2822      C2823   1.404       .  A
C2822      C2827   1.449       .  S
C2823      C2824   1.410       .  A
C2823      C2830   1.452       .  S
C2824      C2825   1.411       .  A
C2825      C2826   1.413       .  A
C2825      C2828   1.450       .  S
C2826      C2829   1.450       .  S
C2827      N2834   1.157   1_565  T
C2828      N2833   1.157       .  T
C2829      N2831   1.157       .  T
C2830      N2832   1.157   1_554  T
C2835      C2836   1.418       .  A
C2835      C2840   1.420       .  A
C2836      C2837   1.416       .  A
C2836      C2841   1.446       .  S
C2837      C2838   1.410       .  A
C2837      C2844   1.450       .  S
C2838      C2839   1.410       .  A
C2839      C2840   1.406       .  A
C2839      C2842   1.456       .  S
C2840      C2843   1.450       .  S
C2841      N2848   1.155       .  T
C2842      N2847   1.158       .  T
C2843      N2845   1.156       .  T
C2844      N2846   1.157       .  T
