geometry optimzed in LAMMPS
_audit_creation_date              2020-11-30 
_audit_creation_method            'lammps2cif' 
_symmetry_space_group_name_H-M    'P1' 
_symmetry_Int_Tables_number       1 
_symmetry_cell_setting            triclinic 
loop_ 
_symmetry_equiv_pos_as_xyz 
  x,y,z 
_cell_length_a                    40.83083922 
_cell_length_b                    40.815155221526524 
_cell_length_c                    40.79741415678805 
_cell_angle_alpha                 89.81694461221883 
_cell_angle_beta                  90.1277867948008 
_cell_angle_gamma                 90.13664377607444 
loop_ 
_atom_site_label 
_atom_site_type_symbol 
_atom_site_fract_x 
_atom_site_fract_y 
_atom_site_fract_z 
_atom_site_charge 
C1          C  0.15476534  0.75458097  0.97378724     0.79900
N2          N  0.17048358  0.75035197  0.00273197    -0.78400
C3          C  0.15388379  0.75152795  0.03151039     0.82400
N4          N  0.12113711  0.75718925  0.03099049    -0.78300
C5          C  0.10514400  0.76162302  0.00210241     0.82500
N6          N  0.12211486  0.75995782  0.97364549    -0.80000
C7          C  0.34565755  0.60093758  0.03321256     0.79900
N8          N  0.34783846  0.56757982  0.03310060    -0.78400
C9          C  0.34767968  0.55064856  0.00430632     0.82400
N10         N  0.34513551  0.56754778  0.97560993    -0.78300
C11         C  0.34293391  0.60074072  0.97505938     0.82500
N12         N  0.34309692  0.61710414  0.00403564    -0.80000
C13         C  0.91622249  0.20691185  0.02783838     0.79900
N14         N  0.94796024  0.19744955  0.02794653    -0.78400
C15         C  0.96441523  0.19255675  0.99957470     0.82400
N16         N  0.94864515  0.19748892  0.97059093    -0.78300
C17         C  0.91674156  0.20689050  0.96996896     0.82500
N18         N  0.90081626  0.21151453  0.99873561    -0.80000
C19         C  0.72387559  0.35402381  0.96829151     0.79900
N20         N  0.72156286  0.38723199  0.96863152    -0.78400
C21         C  0.72176563  0.40412696  0.99724726     0.82400
N22         N  0.72439379  0.38728475  0.02593090    -0.78300
C23         C  0.72673074  0.35407538  0.02637558     0.82500
N24         N  0.72653516  0.33765402  0.99735813    -0.80000
C25         C  0.77125390  0.94886728  0.11982410     0.79900
N26         N  0.76493599  0.94941274  0.08722261    -0.78400
C27         C  0.76095017  0.97826029  0.07108529     0.82400
N28         N  0.76374949  0.00666250  0.08792358    -0.78300
C29         C  0.77012168  0.00648915  0.12053013     0.82500
N30         N  0.77395374  0.97750298  0.13632293    -0.80000
C31         C  0.66229390  0.00557277  0.30755730     0.79900
N32         N  0.67767537  0.97602411  0.30690054    -0.78400
C33         C  0.66036774  0.94743939  0.30705890     0.82400
N34         N  0.62695455  0.94883274  0.30761960    -0.78300
C35         C  0.61104153  0.97822032  0.30827507     0.82500
N36         N  0.62902702  0.00627933  0.30828485    -0.80000
C37         C  0.26251816  0.00521642  0.87920108     0.79900
N38         N  0.25994495  0.00493539  0.91221886    -0.78400
C39         C  0.25884717  0.97634735  0.92900683     0.82400
N40         N  0.26069470  0.94774735  0.91242337    -0.78300
C41         C  0.26349511  0.94756586  0.87935662     0.82500
N42         N  0.26436308  0.97642257  0.86290745    -0.80000
C43         C  0.41053876  0.95011986  0.70269430     0.79900
N44         N  0.44381089  0.95015216  0.70080799    -0.78400
C45         C  0.46106599  0.97863775  0.69934787     0.82400
N46         N  0.44456699  0.00742949  0.69996651    -0.78300
C47         C  0.41140361  0.00816446  0.70191526     0.82500
N48         N  0.39448944  0.97937070  0.70317231    -0.80000
C49         C  0.91566103  0.75815230  0.02772692     0.79900
N50         N  0.94837287  0.76388144  0.02714109    -0.78400
C51         C  0.96442892  0.76718259  0.99820012     0.82400
N52         N  0.94744731  0.76439964  0.96976604    -0.78300
C53         C  0.91478697  0.75875314  0.97003404     0.82500
N54         N  0.89923106  0.75566548  0.99908112    -0.80000
C55         C  0.73151463  0.59623683  0.03079991     0.79900
N56         N  0.72777931  0.56313627  0.03013717    -0.78400
C57         C  0.72609136  0.54670740  0.00125073     0.82400
N58         N  0.72840155  0.56388999  0.97277550    -0.78300
C59         C  0.73217943  0.59694539  0.97274927     0.82500
N60         N  0.73362707  0.61293526  0.00190915    -0.80000
C61         C  0.15322837  0.19979381  0.97382938     0.79900
N62         N  0.12089787  0.19245774  0.97463812    -0.78400
C63         C  0.10502187  0.18919710  0.00368570     0.82400
N64         N  0.12190494  0.19397905  0.03205136    -0.78300
C65         C  0.15433834  0.20155120  0.03155983     0.82500
N66         N  0.16968673  0.20437426  0.00228456    -0.80000
C67         C  0.33905550  0.35716437  0.97176065     0.79900
N68         N  0.34197692  0.39045912  0.97155861    -0.78400
C69         C  0.34300476  0.40767199  0.00013268     0.82400
N70         N  0.34087899  0.39114991  0.02898450    -0.78300
C71         C  0.33773507  0.35805333  0.02988810     0.82500
N72         N  0.33686643  0.34127113  0.00111776    -0.80000
C73         C  0.75895328  0.94880423  0.87981646     0.79900
N74         N  0.76241584  0.97771524  0.86386586    -0.78400
C75         C  0.76178231  0.00640752  0.88046110     0.82400
N76         N  0.75785097  0.00594726  0.91343565    -0.78300
C77         C  0.75432753  0.97722337  0.92981864     0.82500
N78         N  0.75510739  0.94876417  0.91280067    -0.80000
C79         C  0.65399366  0.00431578  0.69969947     0.79900
N80         N  0.67026287  0.97526271  0.69997444    -0.78400
C81         C  0.65388785  0.94619985  0.69862389     0.82400
N82         N  0.62062511  0.94652409  0.69706076    -0.78300
C83         C  0.60377715  0.97521771  0.69668968     0.82500
N84         N  0.62073880  0.00395651  0.69805343    -0.80000
C85         C  0.26910768  0.01098452  0.11925728     0.79900
N86         N  0.27259293  0.98211571  0.13556608    -0.78400
C87         C  0.27149075  0.95318437  0.11933116     0.82400
N88         N  0.26685127  0.95339592  0.08660416    -0.78300
C89         C  0.26321583  0.98176478  0.06985184     0.82500
N90         N  0.26445149  0.01058727  0.08628750    -0.80000
C91         C  0.41686800  0.95412268  0.30787885     0.79900
N92         N  0.45014510  0.95410338  0.30909709    -0.78400
C93         C  0.46763435  0.98247976  0.30949841     0.82400
N94         N  0.45118069  0.01153826  0.30824674    -0.78300
C95         C  0.41774610  0.01227626  0.30704128     0.82500
N96         N  0.40094038  0.98337074  0.30687259    -0.80000
C97         C  0.00397041  0.09827599  0.73430353     0.79900
N98         N  0.03237916  0.11544086  0.73384696    -0.78400
C99         C  0.06147344  0.09973677  0.73153831     0.82400
N100        N  0.06211492  0.06656911  0.73024914    -0.78300
C101        C  0.03387964  0.04913805  0.73076450     0.82500
N102        N  0.00497706  0.06520330  0.73294484    -0.80000
C103        C  0.00402786  0.27381959  0.62288230     0.79900
N104        N  0.03290842  0.27158822  0.63941807    -0.78400
C105        C  0.06198863  0.27116177  0.62316891     0.82400
N106        N  0.06182069  0.27298386  0.58984748    -0.78300
C107        C  0.03319593  0.27510413  0.57281106     0.82500
N108        N  0.00453917  0.27544817  0.58963194    -0.80000
C109        C  0.06327502  0.85910500  0.75137956     0.79900
N110        N  0.03439202  0.84288354  0.75486834    -0.78400
C111        C  0.00549062  0.85914566  0.75317449     0.82400
N112        N  0.00576420  0.89183854  0.74793884    -0.78300
C113        C  0.03419104  0.90849592  0.74442248     0.82500
N114        N  0.06295281  0.89196640  0.74602776    -0.80000
C115        C  0.00466579  0.68038834  0.62541541     0.79900
N116        N  0.00478732  0.68070784  0.59197908    -0.78400
C117        C  0.03340094  0.68232869  0.57494671     0.82400
N118        N  0.06207052  0.68368187  0.59189922    -0.78300
C119        C  0.06263531  0.68348263  0.62519106     0.82500
N120        N  0.03377346  0.68184059  0.64169871    -0.80000
C121        C  0.06693200  0.86199389  0.23409394     0.79900
N122        N  0.03806867  0.84546464  0.23562988    -0.78400
C123        C  0.00910476  0.86145719  0.23184004     0.82400
N124        N  0.00929792  0.89438021  0.22678838    -0.78300
C125        C  0.03798938  0.91113977  0.22537712     0.82500
N126        N  0.06650698  0.89472031  0.22900594    -0.80000
C127        C  0.06852556  0.68358765  0.38175689     0.79900
N128        N  0.06736712  0.68250173  0.41510248    -0.78400
C129        C  0.03830174  0.68283726  0.43142293     0.82400
N130        N  0.01002766  0.68442733  0.41373563    -0.78300
C131        C  0.01046269  0.68537252  0.38035610     0.82500
N132        N  0.03987483  0.68492646  0.36462413    -0.80000
C133        C  0.00737963  0.10029041  0.22604367     0.79900
N134        N  0.00801644  0.06777890  0.21927686    -0.78400
C135        C  0.03691916  0.05180301  0.21654032     0.82400
N136        N  0.06524545  0.06857368  0.22091044    -0.78300
C137        C  0.06510384  0.10093557  0.22779835     0.82500
N138        N  0.03604259  0.11663036  0.23030833    -0.80000
C139        C  0.06444833  0.27841445  0.37959301     0.79900
N140        N  0.06398411  0.27891600  0.41289261    -0.78400
C141        C  0.03529664  0.27791945  0.42972238     0.82400
N142        N  0.00662084  0.27619122  0.41263742    -0.78300
C143        C  0.00645417  0.27548393  0.37926047     0.82500
N144        N  0.03554640  0.27662882  0.36309448    -0.80000
C145        C  0.31023513  0.51080349  0.38490562     0.79900
N146        N  0.32006719  0.51007886  0.41672869    -0.78400
C147        C  0.32428724  0.48111729  0.43268158     0.82400
N148        N  0.31819333  0.45273602  0.41646944    -0.78300
C149        C  0.30817939  0.45298341  0.38478580     0.82500
N150        N  0.30438290  0.48211556  0.36922631    -0.80000
C151        C  0.16069702  0.45457644  0.19936685     0.79900
N152        N  0.17655507  0.48388518  0.19986078    -0.78400
C153        C  0.15974103  0.51262086  0.19802251     0.82400
N154        N  0.12648677  0.51166191  0.19569059    -0.78300
C155        C  0.11012037  0.48258270  0.19502161     0.82500
N156        N  0.12749907  0.45428992  0.19702108    -0.80000
O157        O  0.25784995  0.74507090  0.15086087    -0.86800
O158        O  0.21840547  0.70076910  0.32660827    -0.86900
O159        O  0.21485926  0.66122947  0.21989624    -0.88600
O160        O  0.18799441  0.76225736  0.24026463    -0.87400
O161        O  0.21488768  0.80840584  0.25815162    -0.87000
O162        O  0.26302438  0.63272977  0.22113982    -0.88300
O163        O  0.18934327  0.70123678  0.27856133    -0.86800
O164        O  0.21220149  0.72637801  0.17784431    -0.86400
Zr165      Zr  0.22698274  0.71797731  0.23497493     2.84300
O166        O  0.24218936  0.74818698  0.28126544    -1.08400
O167        O  0.27308376  0.70251690  0.20462249    -1.09100
C168        C  0.22743907  0.73631835  0.15193955     1.06300
C169        C  0.19153146  0.69752000  0.30998475     1.06300
C170        C  0.23175089  0.63460181  0.21694621     1.09300
C171        C  0.18900266  0.79259282  0.24894703     1.07000
H172        H  0.24768623  0.66575420  0.27480181     0.32600
O173        O  0.25985228  0.68482547  0.26776603    -1.29300
H174        H  0.24295605  0.77838229  0.20555876     0.32300
O175        O  0.25666215  0.76474703  0.21923038    -1.31000
O176        O  0.32073736  0.71660567  0.35116116    -0.86800
O177        O  0.35988455  0.76406030  0.17674866    -0.88300
O178        O  0.30317510  0.63108013  0.28242434    -0.86800
O179        O  0.25840041  0.80702858  0.32320323    -0.86900
O180        O  0.27669725  0.83257959  0.22049482    -0.86600
O181        O  0.32262481  0.65727311  0.18122656    -0.86400
O182        O  0.38904363  0.70094000  0.26893917    -0.86800
O183        O  0.36373854  0.80381597  0.28333447    -0.86200
O184        O  0.36279726  0.65520616  0.24949509    -0.87300
O185        O  0.31587861  0.83283259  0.28132058    -0.86500
O186        O  0.28443858  0.65770589  0.32815011    -0.86900
O187        O  0.31992240  0.70529269  0.15231446    -0.86600
O188        O  0.29611387  0.80620721  0.17490760    -0.86200
O189        O  0.26042944  0.75847618  0.35142081    -0.86600
O190        O  0.36668141  0.73667809  0.32598138    -0.86900
O191        O  0.38925962  0.76231507  0.22457394    -0.88300
Zr192      Zr  0.27532526  0.71502217  0.31365289     2.83100
Zr193      Zr  0.30318601  0.74897152  0.18945673     2.83500
Zr194      Zr  0.30644002  0.67001842  0.23771024     2.84100
Zr195      Zr  0.27238837  0.79454277  0.26590981     2.83400
Zr196      Zr  0.35176294  0.74668631  0.26876360     2.84200
O197        O  0.31863867  0.77931467  0.23565811    -1.08800
O198        O  0.32172242  0.70015432  0.28390006    -1.08400
C199        C  0.35116512  0.72492676  0.35101271     1.06300
C200        C  0.38689077  0.76670044  0.19320293     1.08900
C201        C  0.29455742  0.63199009  0.31278429     1.06500
C202        C  0.25640322  0.78980442  0.34989991     1.06800
C203        C  0.28604628  0.83183506  0.19034675     1.06400
C204        C  0.32510445  0.67411900  0.15437988     1.06000
C205        C  0.38800267  0.67038753  0.26112516     1.06400
C206        C  0.34717915  0.83072595  0.28581158     1.05900
H207        H  0.35572722  0.70923813  0.21031996     0.32600
O208        O  0.33667744  0.71624191  0.22228885    -1.29900
H209        H  0.31272700  0.77375219  0.31787312     0.32600
O210        O  0.30560735  0.76174054  0.29882694    -1.31300
C211        C  0.41347145  0.25998127  0.47468110     0.79900
N212        N  0.39845136  0.25576451  0.50395725    -0.78400
C213        C  0.41551605  0.25831784  0.53244326     0.82400
N214        N  0.44808304  0.26489861  0.53134399    -0.78300
C215        C  0.46332658  0.26940042  0.50218098     0.82500
N216        N  0.44584460  0.26679908  0.47410840    -0.80000
C217        C  0.23066562  0.10151597  0.47356237     0.79900
N218        N  0.23095915  0.11766974  0.50275310    -0.78400
C219        C  0.22879644  0.10104392  0.53165699     0.82400
N220        N  0.22624953  0.06787876  0.53115469    -0.78300
C221        C  0.22595271  0.05114731  0.50248955     0.82500
N222        N  0.22838173  0.06817942  0.47377380    -0.80000
O223        O  0.26932776  0.12627338  0.77941863    -0.86800
O224        O  0.31632777  0.30118674  0.82388323    -0.86900
O225        O  0.35443326  0.19461061  0.82769952    -0.88600
O226        O  0.25223763  0.21082801  0.85211232    -0.87400
O227        O  0.20649637  0.23013793  0.82589247    -0.87000
O228        O  0.38346566  0.19729100  0.77984053    -0.88300
O229        O  0.31308166  0.25279076  0.85223031    -0.86800
O230        O  0.28923766  0.15139618  0.82570364    -0.86400
Zr231      Zr  0.29762270  0.20929084  0.81407504     2.84300
O232        O  0.26790689  0.25629679  0.79979262    -1.08400
O233        O  0.31343493  0.18034838  0.76735548    -1.09100
C234        C  0.27851576  0.12636050  0.80958118     1.06300
C235        C  0.31826947  0.28403320  0.85055332     1.06300
C236        C  0.38141925  0.19262360  0.81113601     1.09300
C237        C  0.22171546  0.21894955  0.85139502     1.07000
H238        H  0.34961156  0.24998020  0.79483348     0.32600
O239        O  0.33076367  0.24318049  0.78228369    -1.29300
H240        H  0.23698242  0.18015863  0.79664849     0.32300
O241        O  0.25094615  0.19429853  0.78379419    -1.31000
O242        O  0.30050899  0.32815138  0.72202137    -0.86800
O243        O  0.25119118  0.15506024  0.67992909    -0.88300
O244        O  0.38547150  0.25901635  0.74058350    -0.86800
O245        O  0.20878575  0.29796532  0.78450408    -0.86900
O246        O  0.18209457  0.19860349  0.76038431    -0.86600
O247        O  0.35822554  0.15752951  0.71983670    -0.86400
O248        O  0.31612011  0.24376367  0.65211307    -0.86800
O249        O  0.21335134  0.25824186  0.67662816    -0.86200
O250        O  0.36209115  0.22547788  0.67907129    -0.87300
O251        O  0.18447328  0.25598207  0.72461506    -0.86500
O252        O  0.35807344  0.30465737  0.75855870    -0.86900
O253        O  0.30998800  0.12872779  0.71960878    -0.86600
O254        O  0.20904980  0.15410058  0.73978848    -0.86200
O255        O  0.25704615  0.32648313  0.78319836    -0.86600
O256        O  0.28061660  0.30304449  0.67596586    -0.86900
O257        O  0.25324999  0.20336230  0.65137986    -0.88300
Zr258      Zr  0.30096557  0.28956948  0.76709061     2.83100
Zr259      Zr  0.26712027  0.16642271  0.73635868     2.83500
Zr260      Zr  0.34667905  0.21417636  0.73558991     2.84100
Zr261      Zr  0.22178927  0.24158183  0.76910081     2.83400
Zr262      Zr  0.27057225  0.24594160  0.68974741     2.84200
O263        O  0.23759287  0.21295430  0.72221596    -1.08800
O264        O  0.31679205  0.26065104  0.72042324    -1.08400
C265        C  0.29248090  0.32794919  0.69143070     1.06300
C266        C  0.24817171  0.17215020  0.65337814     1.08900
C267        C  0.38402006  0.28945379  0.74891292     1.06500
C268        C  0.22573363  0.32464819  0.78732929     1.06800
C269        C  0.18287525  0.16941986  0.74855473     1.06400
C270        C  0.34132945  0.13090690  0.71608228     1.06000
C271        C  0.34663618  0.23584492  0.65340814     1.06400
C272        C  0.18639588  0.25959408  0.69317865     1.05900
H273        H  0.30776149  0.18748698  0.68503130     0.32600
O274        O  0.30085300  0.19932076  0.70422094    -1.29900
H275        H  0.24248421  0.29438470  0.72939899     0.32600
O276        O  0.25452534  0.27526522  0.73628007    -1.31300
C277        C  0.41698492  0.69699868  0.47330203     0.79900
N278        N  0.44962453  0.69119974  0.47424082    -0.78400
C279        C  0.46535581  0.68713261  0.50330911     0.82400
N280        N  0.44799379  0.68919982  0.53157857    -0.78300
C281        C  0.41530609  0.69508348  0.53100617     0.82500
N282        N  0.40010637  0.69915776  0.50176065    -0.80000
C283        C  0.23392055  0.85779319  0.53145562     0.79900
N284        N  0.23619820  0.84183852  0.50223725    -0.78400
C285        C  0.23512494  0.85849165  0.47327179     0.82400
N286        N  0.23214819  0.89158376  0.47381279    -0.78300
C287        C  0.23006183  0.90820352  0.50253716     0.82500
N288        N  0.23083006  0.89107886  0.53128696    -0.80000
C289        C  0.31463023  0.50599621  0.62095455     0.79900
N290        N  0.31205027  0.47709274  0.63707954    -0.78400
C291        C  0.31791416  0.44842119  0.62172308     0.82400
N292        N  0.32633793  0.44861478  0.58966399    -0.78300
C293        C  0.32951614  0.47729644  0.57306570     0.82500
N294        N  0.32347355  0.50595783  0.58887773    -0.80000
C295        C  0.15425000  0.44686526  0.80625303     0.79900
N296        N  0.17102643  0.47574031  0.80507932    -0.78400
C297        C  0.15511036  0.50501096  0.80537895     0.82400
N298        N  0.12185286  0.50511072  0.80667035    -0.78300
C299        C  0.10453907  0.47663343  0.80787781     0.82500
N300        N  0.12099047  0.44765524  0.80750552    -0.80000
O301        O  0.25560339  0.74268066  0.85318927    -0.86800
O302        O  0.21250783  0.69402040  0.68003659    -0.86900
O303        O  0.18413637  0.75633509  0.76634960    -0.88600
O304        O  0.21116183  0.65390031  0.78394038    -0.87400
O305        O  0.25916674  0.62525517  0.78014719    -0.87000
O306        O  0.21029727  0.80153847  0.74528685    -0.88300
O307        O  0.18405066  0.69616194  0.72833429    -0.86800
O308        O  0.20967071  0.72315098  0.82755923    -0.86400
Zr309      Zr  0.22313611  0.71148055  0.77047787     2.84300
O310        O  0.25574550  0.67857651  0.73708133    -1.08400
O311        O  0.25308810  0.75817051  0.78449131    -1.09100
C312        C  0.22499084  0.73494765  0.85267355     1.06300
C313        C  0.18576458  0.69212229  0.69704185     1.06300
C314        C  0.18469099  0.78629136  0.75604205     1.09300
C315        C  0.22791195  0.62695594  0.78488648     1.07000
H316        H  0.21851377  0.74820728  0.71116002     0.32600
O317        O  0.23759875  0.74134282  0.72328442    -1.29300
H318        H  0.26320278  0.68365534  0.81913761     0.32300
O319        O  0.26981707  0.69574493  0.79991825    -1.31000
O320        O  0.31483499  0.71092259  0.65134316    -0.86800
O321        O  0.35620258  0.75839282  0.82532189    -0.88300
O322        O  0.25403751  0.79986227  0.68000671    -0.86800
O323        O  0.30040005  0.62539420  0.72071491    -0.86900
O324        O  0.31902004  0.65126381  0.82313651    -0.86600
O325        O  0.26970199  0.82563818  0.78249977    -0.86400
O326        O  0.35886208  0.79813762  0.71922901    -0.86800
O327        O  0.38564630  0.69696993  0.73528440    -0.86200
O328        O  0.31077496  0.82658407  0.72212777    -0.87300
O329        O  0.36048130  0.65067329  0.75525860    -0.86500
O330        O  0.25480696  0.75169401  0.65154832    -0.86900
O331        O  0.29011549  0.79967499  0.82821720    -0.86600
O332        O  0.31708296  0.69943867  0.85160955    -0.86200
O333        O  0.27989807  0.65182557  0.67526794    -0.86600
O334        O  0.36049021  0.73183037  0.67656970    -0.86900
O335        O  0.38501816  0.75699099  0.77724674    -0.88300
Zr336      Zr  0.27007684  0.70853055  0.69020818     2.83100
Zr337      Zr  0.29976261  0.74273614  0.81392647     2.83500
Zr338      Zr  0.26766740  0.78784159  0.73740911     2.84100
Zr339      Zr  0.30305073  0.66363921  0.76620715     2.83400
Zr340      Zr  0.34677860  0.74107023  0.73391312     2.84200
O341        O  0.33293941  0.71046419  0.78076659    -1.08800
O342        O  0.30018709  0.75556851  0.70384248    -1.08400
C343        C  0.34518894  0.71983308  0.65156166     1.06300
C344        C  0.38286182  0.76125086  0.80857257     1.08900
C345        C  0.25131779  0.78311152  0.65321173     1.06500
C346        C  0.29154004  0.62653029  0.69031207     1.06800
C347        C  0.32184712  0.66817118  0.84985060     1.06400
C348        C  0.27874036  0.82485518  0.81274397     1.06000
C349        C  0.34206383  0.82494899  0.71754025     1.06400
C350        C  0.38541368  0.66657413  0.74369561     1.05900
H351        H  0.32639586  0.79240113  0.77442896     0.32600
O352        O  0.31435079  0.77328277  0.76755692    -1.29900
H353        H  0.33067454  0.68057513  0.70568288     0.32600
O354        O  0.31713687  0.69402147  0.71954909    -1.31300
C355        C  0.76169773  0.44814831  0.38044277     0.79900
N356        N  0.76382820  0.47671448  0.36353589    -0.78400
C357        C  0.76130362  0.50587276  0.37900853     0.82400
N358        N  0.75678157  0.50635669  0.41181409    -0.78300
C359        C  0.75445418  0.47809584  0.42905615     0.82500
N360        N  0.75711938  0.44904051  0.41331270    -0.80000
C361        C  0.91783179  0.50735797  0.19989359     0.79900
N362        N  0.90089629  0.47865950  0.20234502    -0.78400
C363        C  0.91681707  0.44932336  0.20264272     0.82400
N364        N  0.95010938  0.44909917  0.20030156    -0.78300
C365        C  0.96740300  0.47751683  0.19765862     0.82500
N366        N  0.95094142  0.50637066  0.19752800    -0.80000
C367        C  0.56647971  0.59748079  0.26639664     0.79900
N368        N  0.56570106  0.56499992  0.27340093    -0.78400
C369        C  0.53700680  0.54984484  0.28059627     0.82400
N370        N  0.50900968  0.56750544  0.28084299    -0.78300
C371        C  0.50936680  0.59994920  0.27391655     0.82500
N372        N  0.53819365  0.61474598  0.26666129    -0.80000
C373        C  0.56784329  0.78649516  0.12192859     0.79900
N374        N  0.53897954  0.78528598  0.13845840    -0.78400
C375        C  0.50977702  0.78654875  0.12247449     0.82400
N376        N  0.50972563  0.78876325  0.08916553    -0.78300
C377        C  0.53826145  0.78989541  0.07194201     0.82500
N378        N  0.56719570  0.78873498  0.08863664    -0.80000
O379        O  0.79933265  0.82740424  0.21646427    -0.86800
O380        O  0.75631572  0.65152462  0.17881944    -0.86900
O381        O  0.81842630  0.74335270  0.14937635    -0.88600
O382        O  0.71597535  0.75840595  0.17548916    -0.87400
O383        O  0.68812153  0.75724102  0.22410141    -0.87000
O384        O  0.86492332  0.72518455  0.17538369    -0.88300
O385        O  0.75708188  0.69956666  0.14990247    -0.86800
O386        O  0.77993370  0.80009773  0.17122579    -0.86400
Zr387      Zr  0.77312469  0.74338988  0.18709366     2.84300
O388        O  0.74072976  0.71026261  0.22018297    -1.08400
O389        O  0.81985354  0.75958819  0.21633727    -1.09100
C390        C  0.78949416  0.82606533  0.18639356     1.06300
C391        C  0.75294718  0.66825815  0.15206401     1.06300
C392        C  0.84910233  0.73606585  0.15016719     1.09300
C393        C  0.68960206  0.76162354  0.19279726     1.07000
H394        H  0.81166842  0.68576285  0.18276217     0.32600
O395        O  0.80471661  0.69773691  0.20186035    -1.29300
H396        H  0.74515730  0.79218194  0.22631669     0.32300
O397        O  0.75773752  0.77341453  0.23316286    -1.31000
O398        O  0.77446388  0.62640660  0.27957439    -0.86800
O399        O  0.81694078  0.80236388  0.31960155    -0.88300
O400        O  0.86381610  0.65713641  0.21743916    -0.86800
O401        O  0.68758345  0.69512984  0.26112543    -0.86900
O402        O  0.71279025  0.79651983  0.28262339    -0.86600
O403        O  0.88929917  0.75873443  0.23524714    -0.86400
O404        O  0.86005128  0.69860167  0.32444499    -0.86800
O405        O  0.75862666  0.71167187  0.35062862    -0.86200
O406        O  0.88923146  0.70043005  0.27660454    -0.87300
O407        O  0.71262394  0.73054932  0.32447051    -0.86500
O408        O  0.81606777  0.62766543  0.21944042    -0.86900
O409        O  0.86186283  0.80442237  0.25311831    -0.86600
O410        O  0.76013545  0.82655579  0.27915448    -0.86200
O411        O  0.71504746  0.64976085  0.24252351    -0.86600
O412        O  0.79486065  0.65229999  0.32500511    -0.86900
O413        O  0.81505284  0.75439034  0.34876118    -0.88300
Zr414      Zr  0.77209438  0.66478773  0.23501540     2.83100
Zr415      Zr  0.80438066  0.78972745  0.26235569     2.83500
Zr416      Zr  0.85081666  0.71383710  0.23224214     2.84100
Zr417      Zr  0.72591697  0.74009042  0.26689816     2.83400
Zr418      Zr  0.80272219  0.70990504  0.31114287     2.84200
O419        O  0.77244909  0.75615952  0.29592088    -1.08800
O420        O  0.81872204  0.67984443  0.26516024    -1.08400
C421        C  0.78344739  0.62698529  0.30980203     1.06300
C422        C  0.81851425  0.78580165  0.34665104     1.08900
C423        C  0.84727386  0.63014116  0.21484122     1.06500
C424        C  0.68908342  0.66492876  0.25205429     1.06800
C425        C  0.72900562  0.82374414  0.28464872     1.06400
C426        C  0.88787500  0.78913445  0.24350513     1.06000
C427        C  0.88715198  0.69732209  0.30813784     1.06400
C428        C  0.72822810  0.72010213  0.35007158     1.05900
H429        H  0.85360743  0.75155425  0.29057217     0.32600
O430        O  0.83487357  0.74394862  0.27832868    -1.29900
H431        H  0.74260096  0.67981851  0.29544982     0.32600
O432        O  0.75610518  0.69372313  0.28186156    -1.31300
C433        C  0.65410885  0.71629172  0.52850090     0.79900
N434        N  0.62193890  0.70811593  0.52867058    -0.78400
C435        C  0.60586117  0.70102025  0.50043312     0.82400
N436        N  0.62245911  0.70226915  0.47164623    -0.78300
C437        C  0.65475561  0.71024447  0.47100062     0.82500
N438        N  0.67037084  0.71711010  0.49957367    -0.80000
C439        C  0.82692127  0.85400773  0.52962224     0.79900
N440        N  0.82715258  0.83789701  0.50047454    -0.78400
C441        C  0.82813955  0.85450524  0.47151625     0.82400
N442        N  0.82871415  0.88783717  0.47205212    -0.78300
C443        C  0.82856014  0.90454210  0.50087530     0.82500
N444        N  0.82764248  0.88734741  0.52947510    -0.80000
C445        C  0.56329545  0.59683847  0.71934700     0.79900
N446        N  0.56298852  0.56445040  0.71234955    -0.78400
C447        C  0.53436742  0.54810284  0.70818198     0.82400
N448        N  0.50576035  0.56453353  0.71146054    -0.78300
C449        C  0.50550763  0.59695273  0.71845282     0.82500
N450        N  0.53443433  0.61289153  0.72245331    -0.80000
C451        C  0.50443278  0.78654203  0.87845099     0.79900
N452        N  0.53322779  0.78429820  0.86205805    -0.78400
C453        C  0.56232675  0.78476276  0.87824912     0.82400
N454        N  0.56228813  0.78756924  0.91147885    -0.78300
C455        C  0.53374339  0.78987740  0.92852941     0.82500
N456        N  0.50490767  0.78912156  0.91172663    -0.80000
C457        C  0.76185117  0.45008897  0.61890591     0.79900
N458        N  0.76476962  0.47868099  0.63545297    -0.78400
C459        C  0.76367998  0.50778330  0.61944905     0.82400
N460        N  0.75986237  0.50807922  0.58655010    -0.78300
C461        C  0.75709190  0.47979763  0.56960242     0.82500
N462        N  0.75809201  0.45078541  0.58587096    -0.80000
C463        C  0.91181107  0.50583934  0.80153529     0.79900
N464        N  0.94512160  0.50528911  0.80246921    -0.78400
C465        C  0.96179762  0.47647758  0.80261878     0.82400
N466        N  0.94464719  0.44794639  0.80179484    -0.78300
C467        C  0.91139874  0.44768287  0.80077295     0.82500
N468        N  0.89518086  0.47683164  0.80058141    -0.80000
O469        O  0.81227240  0.74204201  0.85314004    -0.86800
O470        O  0.85410843  0.69468486  0.67872556    -0.86900
O471        O  0.85716228  0.65560176  0.78624491    -0.88600
O472        O  0.88416303  0.75694884  0.76834762    -0.87400
O473        O  0.85816258  0.80250811  0.74831218    -0.87000
O474        O  0.80889299  0.62711538  0.78375639    -0.88300
O475        O  0.88286905  0.69628057  0.72687331    -0.86800
O476        O  0.85778092  0.72113136  0.82770216    -0.86400
Zr477      Zr  0.84503689  0.71241962  0.77042447     2.84300
O478        O  0.83090271  0.74271361  0.72361867    -1.08400
O479        O  0.79839705  0.69721812  0.80004276    -1.09100
C480        C  0.84234770  0.73277797  0.85261899     1.06300
C481        C  0.88085817  0.69193183  0.69550437     1.06300
C482        C  0.84012695  0.62886006  0.78859407     1.09300
C483        C  0.88367123  0.78716642  0.75913518     1.07000
H484        H  0.82463482  0.66063205  0.73044544     0.32600
O485        O  0.81243843  0.67963987  0.73715576    -1.29300
H486        H  0.82882382  0.77330851  0.79951290     0.32300
O487        O  0.81556746  0.75941686  0.78565279    -1.31000
O488        O  0.75387130  0.71480857  0.65101836    -0.86800
O489        O  0.71185595  0.75880027  0.82680064    -0.88300
O490        O  0.76966644  0.62557702  0.72272997    -0.86800
O491        O  0.81510434  0.80120365  0.68136908    -0.86900
O492        O  0.79252420  0.82903309  0.78199035    -0.86600
O493        O  0.75115109  0.65268093  0.82386628    -0.86400
O494        O  0.68275480  0.69627890  0.73598367    -0.86800
O495        O  0.70959771  0.79824064  0.72070404    -0.86200
O496        O  0.70872783  0.65032551  0.75573786    -0.87300
O497        O  0.75792502  0.82672050  0.72173836    -0.86500
O498        O  0.78812026  0.65284694  0.67698717    -0.86900
O499        O  0.75247960  0.70078314  0.85248748    -0.86600
O500        O  0.77219301  0.80143015  0.82665241    -0.86200
O501        O  0.81376946  0.75300983  0.65286739    -0.86600
O502        O  0.70849874  0.73528342  0.67673829    -0.86900
O503        O  0.68357789  0.75764192  0.77834934    -0.88300
Zr504      Zr  0.79757746  0.70988235  0.69084068     2.83100
Zr505      Zr  0.76819012  0.74369648  0.81413617     2.83500
Zr506      Zr  0.76560634  0.66460695  0.76677404     2.84100
Zr507      Zr  0.80093206  0.78911797  0.73868134     2.83400
Zr508      Zr  0.72117752  0.74115629  0.73483129     2.84200
O509        O  0.75395799  0.77389616  0.76778264    -1.08800
O510        O  0.75063233  0.69437433  0.71984923    -1.08400
C511        C  0.72416302  0.72541598  0.65109791     1.06300
C512        C  0.68537015  0.76197346  0.80972085     1.08900
C513        C  0.77831125  0.62697803  0.69241995     1.06500
C514        C  0.81741644  0.78440917  0.65457941     1.06800
C515        C  0.78106674  0.82769976  0.81145118     1.06400
C516        C  0.74855471  0.66947242  0.85062039     1.06000
C517        C  0.68354796  0.66587903  0.74448627     1.06400
C518        C  0.72662078  0.82486825  0.71762922     1.05900
H519        H  0.71600824  0.70373020  0.79352371     0.32600
O520        O  0.73520997  0.71062322  0.78155531    -1.29900
H521        H  0.76127445  0.76883425  0.68672878     0.32600
O522        O  0.76790492  0.75644692  0.70574182    -1.31300
C523        C  0.50883680  0.36023180  0.27300474     0.79900
N524        N  0.50899253  0.39282160  0.27920920    -0.78400
C525        C  0.53750573  0.40906263  0.28471671     0.82400
N526        N  0.56611433  0.39228427  0.28378180    -0.78300
C527        C  0.56625455  0.35960884  0.27792466     0.82500
N528        N  0.53756513  0.34389069  0.27249784    -0.80000
C529        C  0.56287098  0.17427912  0.12466818     0.79900
N530        N  0.53408410  0.17653966  0.14129684    -0.78400
C531        C  0.50493708  0.17564615  0.12502602     0.82400
N532        N  0.50493651  0.17233237  0.09191044    -0.78300
C533        C  0.53334934  0.16999231  0.07489554     0.82500
N534        N  0.56216758  0.17117402  0.09152794    -0.80000
O535        O  0.81476000  0.21643848  0.14728359    -0.86800
O536        O  0.85609086  0.25813538  0.32440882    -0.86900
O537        O  0.85906830  0.30079885  0.21818863    -0.88600
O538        O  0.88697236  0.20007937  0.23500442    -0.87400
O539        O  0.86099982  0.15399162  0.25430545    -0.87000
O540        O  0.81097685  0.32936851  0.22035706    -0.88300
O541        O  0.88494577  0.25712529  0.27640640    -0.86800
O542        O  0.86057175  0.23561680  0.17388117    -0.86400
Zr543      Zr  0.84729480  0.24346054  0.23155533     2.84300
O544        O  0.83277098  0.21274871  0.27782717    -1.08400
O545        O  0.80096710  0.25855189  0.20135114    -1.09100
C546        C  0.84497882  0.22557126  0.14816663     1.06300
C547        C  0.88295911  0.26048930  0.30791039     1.06300
C548        C  0.84230826  0.32764993  0.21642422     1.09300
C549        C  0.88647590  0.16990762  0.24426337     1.07000
H550        H  0.82662035  0.29442145  0.27240037     0.32600
O551        O  0.81453684  0.27543745  0.26515417    -1.29300
H552        H  0.83168945  0.18308897  0.20155051     0.32300
O553        O  0.81814295  0.19651680  0.21538517    -1.31000
O554        O  0.75448254  0.24180668  0.34931283    -0.86800
O555        O  0.71397443  0.19676145  0.17466561    -0.88300
O556        O  0.77039025  0.32798923  0.27997783    -0.86800
O557        O  0.81799010  0.15288285  0.31847169    -0.86900
O558        O  0.79727618  0.12788442  0.21735267    -0.86600
O559        O  0.75351626  0.30305730  0.17758303    -0.86400
O560        O  0.68611831  0.25903322  0.26583307    -0.86800
O561        O  0.71265260  0.15582521  0.28200985    -0.86200
O562        O  0.71180816  0.30497814  0.24607165    -0.87300
O563        O  0.76116941  0.12794116  0.27936960    -0.86500
O564        O  0.79034098  0.30171827  0.32560586    -0.86900
O565        O  0.75483256  0.25519774  0.14862391    -0.86600
O566        O  0.77718052  0.15499000  0.17223543    -0.86200
O567        O  0.81502686  0.20014406  0.34839279    -0.86600
O568        O  0.70888633  0.22172619  0.32351850    -0.86900
O569        O  0.68558349  0.19644796  0.22300318    -0.88300
Zr570      Zr  0.79945124  0.24456650  0.31112185     2.83100
Zr571      Zr  0.77079535  0.21203737  0.18659033     2.83500
Zr572      Zr  0.76802184  0.29032196  0.23479458     2.84100
Zr573      Zr  0.80331593  0.16638554  0.26198718     2.83400
Zr574      Zr  0.72337140  0.21309834  0.26620247     2.84200
O575        O  0.75629236  0.18112475  0.23263555    -1.08800
O576        O  0.75308525  0.25974705  0.28116730    -1.08400
C577        C  0.72425102  0.23281672  0.34894943     1.06300
C578        C  0.68743930  0.19303796  0.19157396     1.08900
C579        C  0.77946398  0.32720904  0.31019452     1.06500
C580        C  0.81950816  0.16888343  0.34572279     1.06800
C581        C  0.78675342  0.12903841  0.18753689     1.06400
C582        C  0.75082571  0.28648986  0.15065848     1.06000
C583        C  0.68686519  0.28967326  0.25798052     1.06400
C584        C  0.73005131  0.12942219  0.28475619     1.05900
H585        H  0.71831823  0.25118928  0.20775592     0.32600
O586        O  0.73752077  0.24421575  0.21964903    -1.29900
H587        H  0.76315329  0.18546756  0.31457954     0.32600
O588        O  0.76993121  0.19791163  0.29564118    -1.31300
C589        C  0.50416264  0.35965537  0.72498632     0.79900
N590        N  0.50524449  0.39201843  0.71743566    -0.78400
C591        C  0.53435524  0.40726079  0.71190571     0.82400
N592        N  0.56241968  0.38981057  0.71422025    -0.78300
C593        C  0.56174467  0.35752024  0.72183332     0.82500
N594        N  0.53255537  0.34271703  0.72721293    -0.80000
C595        C  0.50480711  0.17724275  0.88292898     0.79900
N596        N  0.50570927  0.17272184  0.91591037    -0.78400
C597        C  0.53464330  0.17033445  0.93232427     0.82400
N598        N  0.56309167  0.17272083  0.91521917    -0.78300
C599        C  0.56298947  0.17727726  0.88219870     0.82500
N600        N  0.53366239  0.17946332  0.86627585    -0.80000
C601        C  0.65049428  0.24393027  0.52743288     0.79900
N602        N  0.66706868  0.24078084  0.49880876    -0.78400
C603        C  0.65180465  0.24592696  0.46969466     0.82400
N604        N  0.61982166  0.25457650  0.46931083    -0.78300
C605        C  0.60300099  0.25788915  0.49770208     0.82500
N606        N  0.61847897  0.25247559  0.52659816    -0.80000
C607        C  0.82942968  0.09788096  0.46938334     0.79900
N608        N  0.82831204  0.11435198  0.49825368    -0.78400
C609        C  0.82739601  0.09818356  0.52742551     0.82400
N610        N  0.82750012  0.06479464  0.52738191    -0.78300
C611        C  0.82843722  0.04772283  0.49874979     0.82500
N612        N  0.82939321  0.06457040  0.46994059    -0.80000
O613        O  0.81425684  0.21341766  0.84952756    -0.86800
O614        O  0.85252229  0.25907174  0.67454683    -0.86900
O615        O  0.88242856  0.19629465  0.76119642    -0.88600
O616        O  0.85590562  0.29881055  0.77963822    -0.87400
O617        O  0.80767743  0.32722866  0.77885121    -0.87000
O618        O  0.85557061  0.15100959  0.74168651    -0.88300
O619        O  0.88177934  0.25733825  0.72245739    -0.86800
O620        O  0.85960548  0.23332403  0.82297652    -0.86400
Zr621      Zr  0.84419808  0.24134315  0.76585015     2.84300
O622        O  0.81119221  0.27431322  0.73283072    -1.08400
O623        O  0.81497288  0.19436899  0.78170116    -1.09100
C624        C  0.84446369  0.22280064  0.84873157     1.06300
C625        C  0.87949736  0.26149797  0.69113492     1.06300
C626        C  0.88158892  0.16641592  0.75104154     1.09300
C627        C  0.83899263  0.32548117  0.78270800     1.07000
H628        H  0.84706736  0.20426062  0.70710087     0.32600
O629        O  0.82829924  0.21113524  0.71956905    -1.29300
H630        H  0.80525901  0.26922893  0.81510691     0.32300
O631        O  0.79839891  0.25694104  0.79613133    -1.31000
O632        O  0.75085337  0.23895358  0.64787078    -0.86800
O633        O  0.71143261  0.19755847  0.82451625    -0.88300
O634        O  0.81103175  0.15242120  0.67800487    -0.86800
O635        O  0.76771326  0.32739937  0.71790605    -0.86900
O636        O  0.74829791  0.30027659  0.81982143    -0.86600
O637        O  0.79428374  0.12587362  0.78011101    -0.86400
O638        O  0.70619065  0.15575442  0.71823254    -0.86800
O639        O  0.68171317  0.25801531  0.73483209    -0.86200
O640        O  0.75435340  0.12720342  0.71968459    -0.87300
O641        O  0.70794975  0.30369635  0.75444741    -0.86500
O642        O  0.81060173  0.20042348  0.64888874    -0.86900
O643        O  0.77509180  0.15314940  0.82506670    -0.86600
O644        O  0.75173150  0.25246035  0.84897203    -0.86200
O645        O  0.78657120  0.30132622  0.67207284    -0.86600
O646        O  0.70534127  0.21971758  0.67486843    -0.86900
O647        O  0.68210310  0.19865349  0.77667656    -0.88300
Zr648      Zr  0.79553859  0.24416116  0.68665234     2.83100
Zr649      Zr  0.76867346  0.21027180  0.81127294     2.83500
Zr650      Zr  0.79828280  0.16481872  0.73528476     2.84100
Zr651      Zr  0.76477323  0.28902618  0.76303794     2.83400
Zr652      Zr  0.71952779  0.21272026  0.73226787     2.84200
O653        O  0.73506519  0.24271277  0.77855788    -1.08800
O654        O  0.76554114  0.19758550  0.70204397    -1.08400
C655        C  0.72072650  0.22946140  0.64899514     1.06300
C656        C  0.68433167  0.19521397  0.80809435     1.08900
C657        C  0.81374961  0.16895552  0.65103112     1.06500
C658        C  0.77612106  0.32684027  0.68746321     1.06800
C659        C  0.74585344  0.28335788  0.84666905     1.06400
C660        C  0.78426930  0.12700780  0.81005002     1.06000
C661        C  0.72295781  0.12898708  0.71574912     1.06400
C662        C  0.68258094  0.28837082  0.74342937     1.05900
H663        H  0.73983498  0.16128258  0.77264918     0.32600
O664        O  0.75225920  0.18010644  0.76555539    -1.29900
H665        H  0.73532209  0.27296867  0.70256907     0.32600
O666        O  0.74901303  0.25945682  0.71636057    -1.31300
O667        O  0.25513693  0.21574858  0.15217948    -0.86800
O668        O  0.21525045  0.26393675  0.32647764    -0.86900
O669        O  0.18541119  0.20198492  0.23793379    -0.88600
O670        O  0.21281439  0.30401073  0.22161867    -0.87400
O671        O  0.26097897  0.33276428  0.22337310    -0.87000
O672        O  0.21100578  0.15644691  0.25881620    -0.88300
O673        O  0.18605772  0.26198618  0.27856179    -0.86800
O674        O  0.20953436  0.23567991  0.17808717    -0.86400
Zr675      Zr  0.22414148  0.24646772  0.23517870     2.84300
O676        O  0.25722273  0.27940052  0.26788007    -1.08400
O677        O  0.25364003  0.19951695  0.22094474    -1.09100
C678        C  0.22469511  0.22407312  0.15287079     1.06300
C679        C  0.18828403  0.26607561  0.30992619     1.06300
C680        C  0.18571466  0.17194079  0.24761146     1.09300
C681        C  0.22961023  0.33090811  0.21959506     1.07000
H682        H  0.21996619  0.20955004  0.29422902     0.32600
O683        O  0.23901805  0.21629679  0.28200556    -1.29300
H684        H  0.26340289  0.27333689  0.18572166     0.32300
O685        O  0.27033533  0.26137769  0.20491659    -1.31000
O686        O  0.31669756  0.24627577  0.35315157    -0.86800
O687        O  0.35697648  0.19920781  0.17968086    -0.88300
O688        O  0.25401308  0.15808982  0.32503900    -0.86800
O689        O  0.30087112  0.33291921  0.28255274    -0.86900
O690        O  0.31817486  0.30551111  0.18038998    -0.86600
O691        O  0.27026419  0.13110085  0.22257002    -0.86400
O692        O  0.36024592  0.16074603  0.28588348    -0.86800
O693        O  0.38774824  0.26155102  0.26477725    -0.86200
O694        O  0.31234991  0.13149933  0.28385184    -0.87300
O695        O  0.36127077  0.30726422  0.24533644    -0.86500
O696        O  0.25593575  0.20646308  0.35318959    -0.86900
O697        O  0.29048794  0.15723644  0.17699389    -0.86600
O698        O  0.31634499  0.25700400  0.15244892    -0.86200
O699        O  0.27992418  0.30701388  0.32791719    -0.86600
O700        O  0.36291650  0.22783526  0.32707211    -0.86900
O701        O  0.38587358  0.20029926  0.22781886    -0.88300
Zr702      Zr  0.27205391  0.24944247  0.31449915     2.83100
Zr703      Zr  0.30006462  0.21431983  0.19092253     2.83500
Zr704      Zr  0.26867742  0.16955883  0.26770729     2.84100
Zr705      Zr  0.30386113  0.29394728  0.23780580     2.83400
Zr706      Zr  0.34817056  0.21754875  0.27031442     2.84200
O707        O  0.33356769  0.24728625  0.22326963    -1.08800
O708        O  0.30184295  0.20251444  0.30056617    -1.08400
C709        C  0.34717870  0.23829279  0.35235210     1.06300
C710        C  0.38367514  0.19601064  0.19658503     1.08900
C711        C  0.25151811  0.17511310  0.35168910     1.06500
C712        C  0.29097107  0.33248524  0.31258210     1.06800
C713        C  0.32066357  0.28830911  0.15384248     1.06400
C714        C  0.27940654  0.13179758  0.19231922     1.06000
C715        C  0.34368369  0.13374713  0.28838807     1.06400
C716        C  0.38687331  0.29178622  0.25549137     1.05900
H717        H  0.32721707  0.16531324  0.23072179     0.32600
O718        O  0.31521565  0.18443928  0.23747364    -1.29900
H719        H  0.33269363  0.27839149  0.29843999     0.32600
O720        O  0.31895858  0.26462847  0.28497258    -1.31300
C721        C  0.81975296  0.15053827  0.61989967    -0.05700
C722        C  0.82206296  0.16775936  0.59004800    -0.33200
C723        C  0.82452841  0.15135183  0.56001969     0.36100
C724        C  0.82555817  0.11670112  0.55902385    -0.06100
C725        C  0.82411254  0.09949446  0.58893030    -0.33100
C726        C  0.82118302  0.11591119  0.61895698     0.36000
H727        H  0.82113103  0.19428002  0.58968278     0.16300
O728        O  0.82560078  0.16974022  0.53187039    -0.60600
H729        H  0.82474553  0.07296809  0.58921126     0.16400
O730        O  0.81859953  0.09756277  0.64705048    -0.60700
H731        H  0.84147770  0.09328673  0.65402795     0.43400
H732        H  0.80237545  0.17386073  0.52602309     0.43300
C733        C  0.66732871  0.23821730  0.55908220    -0.05700
C734        C  0.69979283  0.22681528  0.55898840    -0.33200
C735        C  0.71724569  0.22315823  0.58817100     0.36100
C736        C  0.70220065  0.23060022  0.61819887    -0.06100
C737        C  0.66943644  0.24062615  0.61862724    -0.33100
C738        C  0.65194076  0.24447729  0.58946558     0.36000
H739        H  0.71202749  0.22102643  0.53620687     0.16300
O740        O  0.74870557  0.21144116  0.58716412    -0.60600
H741        H  0.65760592  0.24650500  0.64162521     0.16400
O742        O  0.62030600  0.25556864  0.59112347    -0.60700
H743        H  0.60665229  0.23560461  0.59368576     0.43400
H744        H  0.76248664  0.23049530  0.58091803     0.43300
C745        C  0.59450101  0.18061295  0.86369521    -0.05700
C746        C  0.59416894  0.17954436  0.82925831    -0.33200
C747        C  0.62290592  0.18386362  0.81092341     0.36100
C748        C  0.65335754  0.18899633  0.82681169    -0.06100
C749        C  0.65375425  0.18967375  0.86128589    -0.33100
C750        C  0.62495664  0.18554504  0.87961851     0.36000
H751        H  0.57137637  0.17559831  0.81620431     0.16300
O752        O  0.62068751  0.18290018  0.77739603    -0.60600
H753        H  0.67647191  0.19399805  0.87435839     0.16400
O754        O  0.62692053  0.18772570  0.91308356    -0.60700
H755        H  0.63652491  0.16662019  0.92038195     0.43400
H756        H  0.61467928  0.20549347  0.77068362     0.43300
C757        C  0.59261258  0.33951332  0.72703513    -0.05700
C758        C  0.62233459  0.35697095  0.72829861    -0.33200
C759        C  0.65184118  0.34091507  0.73436489     0.36100
C760        C  0.65196277  0.30677005  0.73943202    -0.06100
C761        C  0.62232254  0.28936903  0.73833139    -0.33100
C762        C  0.59289082  0.30531089  0.73212518     0.36000
H763        H  0.62289609  0.38324783  0.72462143     0.16300
O764        O  0.68033955  0.35881344  0.73470806    -0.60600
H765        H  0.62185897  0.26307188  0.74204468     0.16400
O766        O  0.56479642  0.28691072  0.73015842    -0.60700
H767        H  0.55817186  0.28285802  0.75317385     0.43400
H768        H  0.68773064  0.35953158  0.71158508     0.43300
C769        C  0.70596122  0.23573090  0.38017694    -0.05700
C770        C  0.67248544  0.22774684  0.38110154    -0.33200
C771        C  0.65444003  0.23121470  0.40994720     0.36100
C772        C  0.66994041  0.24215903  0.43879645    -0.06100
C773        C  0.70340050  0.24959676  0.43816515    -0.33100
C774        C  0.72133199  0.24690326  0.40926247     0.36000
H775        H  0.66000719  0.21895714  0.35936895     0.16300
O776        O  0.62197315  0.22258091  0.40994697    -0.60600
H777        H  0.71570118  0.25818227  0.46009784     0.16400
O778        O  0.75393374  0.25507921  0.41004853    -0.60700
H779        H  0.75462430  0.27908931  0.40619472     0.43400
H780        H  0.61069865  0.24024635  0.39759597     0.43300
C781        C  0.82513543  0.14990136  0.37654460    -0.05700
C782        C  0.83345946  0.16651971  0.40553051    -0.33200
C783        C  0.83564124  0.15000296  0.43560533     0.36100
C784        C  0.82941287  0.11595445  0.43748313    -0.06100
C785        C  0.82211317  0.09912892  0.40831659    -0.33100
C786        C  0.81964598  0.11569638  0.37825278     0.36000
H787        H  0.83787020  0.19270368  0.40509678     0.16300
O788        O  0.84340511  0.16774491  0.46301412    -0.60600
H789        H  0.81716208  0.07305084  0.40881783     0.16400
O790        O  0.81070943  0.09819940  0.35098662    -0.60700
H791        H  0.78641497  0.09863776  0.35069459     0.43400
H792        H  0.86748957  0.16571051  0.46540990     0.43300
C793        C  0.53321051  0.16757006  0.03844325    -0.05700
C794        C  0.56313235  0.16633517  0.02148720    -0.33200
C795        C  0.56413022  0.16573075  0.98721144     0.36100
C796        C  0.53481370  0.16717381  0.96877019    -0.06100
C797        C  0.50489609  0.16691210  0.98574834    -0.33100
C798        C  0.50385839  0.16712838  0.02003081     0.36000
H799        H  0.58613757  0.16607938  0.03476047     0.16300
O800        O  0.59408727  0.16424764  0.97225713    -0.60600
H801        H  0.48188689  0.16718788  0.97250828     0.16400
O802        O  0.47386765  0.16681587  0.03507415    -0.60700
H803        H  0.46489722  0.18914587  0.03176645     0.43400
H804        H  0.59795968  0.14058472  0.96834935     0.43300
C805        C  0.47345347  0.17928589  0.14303767    -0.05700
C806        C  0.47227287  0.17343563  0.17698822    -0.33200
C807        C  0.44314474  0.17758185  0.19465293     0.36100
C808        C  0.41430967  0.18814176  0.17849948    -0.06100
C809        C  0.41539516  0.19323777  0.14447460    -0.33100
C810        C  0.44442312  0.18916927  0.12688220     0.36000
H811        H  0.49403745  0.16556535  0.19002140     0.16300
O812        O  0.44339264  0.17148463  0.22773399    -0.60600
H813        H  0.39384617  0.20155307  0.13135868     0.16400
O814        O  0.44409539  0.19592896  0.09396595    -0.60700
H815        H  0.44986406  0.21947977  0.09216375     0.43400
H816        H  0.43675338  0.14819563  0.23001302     0.43300
C817        C  0.59494518  0.17689666  0.14191931    -0.05700
C818        C  0.62306963  0.18561120  0.12400710    -0.33200
C819        C  0.65338340  0.19011523  0.13948684     0.36100
C820        C  0.65637622  0.18557394  0.17372610    -0.06100
C821        C  0.62841485  0.17583605  0.19146459    -0.33100
C822        C  0.59806882  0.17144972  0.17594466     0.36000
H823        H  0.62151376  0.18992303  0.09783427     0.16300
O824        O  0.67964080  0.19970499  0.12081819    -0.60600
H825        H  0.62987282  0.17187954  0.21769524     0.16400
O826        O  0.57166236  0.16204689  0.19446668    -0.60700
H827        H  0.57121078  0.13777688  0.19320616     0.43400
H828        H  0.67861496  0.22398202  0.12015543     0.43300
C829        C  0.47774100  0.34293743  0.26622846    -0.05700
C830        C  0.44797755  0.35934602  0.27128111    -0.33200
C831        C  0.41814228  0.34338722  0.26647583     0.36100
C832        C  0.41768945  0.31020454  0.25727921    -0.06100
C833        C  0.44720727  0.29406527  0.25102570    -0.33100
C834        C  0.47709070  0.31020487  0.25499972     0.36000
H835        H  0.44764867  0.38455567  0.27948847     0.16300
O836        O  0.38963322  0.35996645  0.27259639    -0.60600
H837        H  0.44714808  0.26877410  0.24297057     0.16400
O838        O  0.50530450  0.29394886  0.24699578    -0.60700
H839        H  0.50737778  0.27612310  0.26343521     0.43400
H840        H  0.38442535  0.37159192  0.25184740     0.43300
C841        C  0.59736610  0.34178180  0.27457676    -0.05700
C842        C  0.62631200  0.35929114  0.26817531    -0.33200
C843        C  0.65570838  0.34291244  0.26246449     0.36100
C844        C  0.65652224  0.30834389  0.26339361    -0.06100
C845        C  0.62769102  0.29101361  0.27050409    -0.33100
C846        C  0.59832703  0.30728401  0.27578124     0.36000
H847        H  0.62613482  0.38580415  0.26683632     0.16300
O848        O  0.68322601  0.36102055  0.25564383    -0.60600
H849        H  0.62754266  0.26448501  0.27162359     0.16400
O850        O  0.57088876  0.28910012  0.28271356    -0.60700
H851        H  0.56650398  0.27608777  0.26267017     0.43400
H852        H  0.69291828  0.36635361  0.27729798     0.43300
C853        C  0.89303540  0.41591912  0.79886777    -0.05700
C854        C  0.85859365  0.41590934  0.79884380    -0.33200
C855        C  0.84063291  0.38681957  0.79474152     0.36100
C856        C  0.85697842  0.35656985  0.79028885    -0.06100
C857        C  0.89135087  0.35644520  0.79172480    -0.33100
C858        C  0.90924271  0.38540009  0.79630221     0.36000
H859        H  0.84527537  0.43865097  0.80161316     0.16300
O860        O  0.80708015  0.38843264  0.79537456    -0.60600
H861        H  0.90475311  0.33376916  0.78882828     0.16400
O862        O  0.94269948  0.38333632  0.79736844    -0.60700
H863        H  0.94804761  0.37781492  0.82046942     0.43400
H864        H  0.80058034  0.39653704  0.77335891     0.43300
C865        C  0.89366333  0.53771197  0.80093058    -0.05700
C866        C  0.85932891  0.53763553  0.79820701    -0.33200
C867        C  0.84151824  0.56688238  0.79605750     0.36100
C868        C  0.85788818  0.59752046  0.79567018    -0.06100
C869        C  0.89211769  0.59766725  0.79975862    -0.33100
C870        C  0.90987399  0.56837790  0.80266758     0.36000
H871        H  0.84594895  0.51470600  0.79737523     0.16300
O872        O  0.80809047  0.56490212  0.79339731    -0.60600
H873        H  0.90548629  0.62061947  0.80010638     0.16400
O874        O  0.94320215  0.57028970  0.80641106    -0.60700
H875        H  0.94694293  0.57043016  0.83043728     0.43400
H876        H  0.79992911  0.56469083  0.81630297     0.43300
C877        C  0.77297626  0.35809764  0.66923256    -0.05700
C878        C  0.76485182  0.38661812  0.68665026    -0.33200
C879        C  0.76084770  0.41651886  0.67069039     0.36100
C880        C  0.76472811  0.41853914  0.63642410    -0.06100
C881        C  0.77267295  0.39009926  0.61886366    -0.33100
C882        C  0.77726972  0.36019430  0.63495922     0.36000
H883        H  0.76161493  0.38601236  0.71299545     0.16300
O884        O  0.75337413  0.44357785  0.68905852    -0.60600
H885        H  0.77610959  0.39107652  0.59255401     0.16400
O886        O  0.78570195  0.33330376  0.61678284    -0.60700
H887        H  0.80997674  0.33371565  0.61585218     0.43400
H888        H  0.72913702  0.44350392  0.69086898     0.43300
C889        C  0.76805529  0.53866821  0.63757628    -0.05700
C890        C  0.77887741  0.53745811  0.67027622    -0.33200
C891        C  0.78300829  0.56610522  0.68829110     0.36100
C892        C  0.77619030  0.59658665  0.67367865    -0.06100
C893        C  0.76614863  0.59801559  0.64091476    -0.33100
C894        C  0.76216137  0.56944566  0.62276185     0.36000
H895        H  0.78440434  0.51427565  0.68202574     0.16300
O896        O  0.79491154  0.56414356  0.71970999    -0.60600
H897        H  0.76068829  0.62137730  0.62945277     0.16400
O898        O  0.75146397  0.57201877  0.59096432    -0.60700
H899        H  0.77065515  0.57995987  0.57837900     0.43400
H900        H  0.77591731  0.55766869  0.73333984     0.43300
C901        C  0.59377564  0.78046010  0.86011235    -0.05700
C902        C  0.62383275  0.78476644  0.87652732    -0.33200
C903        C  0.65380053  0.77963449  0.86054741     0.36100
C904        C  0.65434695  0.76992443  0.82729992    -0.06100
C905        C  0.62431149  0.76635994  0.81077129    -0.33100
C906        C  0.59444510  0.77128872  0.82671808     0.36000
H907        H  0.62427094  0.79211142  0.90201644     0.16300
O908        O  0.68231222  0.78498571  0.87758220    -0.60600
H909        H  0.62372573  0.75897058  0.78530355     0.16400
O910        O  0.56612961  0.76665764  0.80920440    -0.60700
H911        H  0.56094907  0.74300465  0.81155778     0.43400
H912        H  0.68606154  0.76464160  0.89038791     0.43300
C913        C  0.53456274  0.51212548  0.70405275    -0.05700
C914        C  0.56435921  0.49517327  0.70676438    -0.33200
C915        C  0.56503077  0.46104826  0.70826102     0.36100
C916        C  0.53547231  0.44304471  0.70641079    -0.06100
C917        C  0.50600989  0.45994054  0.70141847    -0.33100
C918        C  0.50533863  0.49401739  0.70017227     0.36000
H919        H  0.58730981  0.50830059  0.70929366     0.16300
O920        O  0.59466522  0.44586880  0.71267741    -0.60600
H921        H  0.48302495  0.44679684  0.69934285     0.16400
O922        O  0.47565385  0.50913918  0.69643961    -0.60700
H923        H  0.47267863  0.51167320  0.67244312     0.43400
H924        H  0.59862139  0.44620678  0.73668091     0.43300
C925        C  0.59453584  0.61399851  0.72594305    -0.05700
C926        C  0.59379772  0.64541721  0.73995038    -0.33200
C927        C  0.62271232  0.66208809  0.74713913     0.36100
C928        C  0.65307454  0.64750795  0.74019772    -0.06100
C929        C  0.65409732  0.61602455  0.72681850    -0.33100
C930        C  0.62518265  0.59933157  0.71937555     0.36000
H931        H  0.57075341  0.65718093  0.74563061     0.16300
O932        O  0.62102663  0.69265048  0.76096422    -0.60600
H933        H  0.67739665  0.60475828  0.72106645     0.16400
O934        O  0.62736367  0.56888227  0.70545196    -0.60700
H935        H  0.62799344  0.57292881  0.68146340     0.43400
H936        H  0.62330258  0.68893586  0.78488467     0.43300
C937        C  0.82878958  0.94119687  0.50084053    -0.05700
C938        C  0.82369206  0.95826328  0.47126159    -0.33200
C939        C  0.82319163  0.99258491  0.47017627     0.36100
C940        C  0.82830490  0.01106065  0.49902900    -0.06100
C941        C  0.83334666  0.99401555  0.52864152    -0.33100
C942        C  0.83376346  0.95963993  0.52973626     0.36000
H943        H  0.81961657  0.94499756  0.44865753     0.16300
O944        O  0.81743757  0.00760812  0.44061330    -0.60600
H945        H  0.83733630  0.00733651  0.55122751     0.16400
O946        O  0.83909776  0.94452225  0.55932837    -0.60700
H947        H  0.86325742  0.94293407  0.56143363     0.43400
H948        H  0.79339651  0.01093365  0.43971336     0.43300
C949        C  0.82579642  0.83563661  0.56143133    -0.05700
C950        C  0.82884456  0.85279423  0.59118550    -0.33200
C951        C  0.82736970  0.83659748  0.62154417     0.36100
C952        C  0.82269959  0.80231148  0.62295300    -0.06100
C953        C  0.82035650  0.78507657  0.59317466    -0.33100
C954        C  0.82145118  0.80128018  0.56286817     0.36000
H955        H  0.83221765  0.87911587  0.59112885     0.16300
O956        O  0.82979452  0.85484563  0.64961072    -0.60600
H957        H  0.81668066  0.75879008  0.59315487     0.16400
O958        O  0.81773056  0.78305725  0.53493856    -0.60700
H959        H  0.79374483  0.78192298  0.53111553     0.43400
H960        H  0.85361180  0.85675377  0.65400144     0.43300
C961        C  0.67179034  0.72236422  0.55961767    -0.05700
C962        C  0.70618249  0.72198709  0.55985432    -0.33200
C963        C  0.72363881  0.72394754  0.58923794     0.36100
C964        C  0.70670254  0.72620719  0.61930705    -0.06100
C965        C  0.67244916  0.72892158  0.61884788    -0.33100
C966        C  0.65500484  0.72713752  0.58943050     0.36000
H967        H  0.71979778  0.71933251  0.53725925     0.16300
O968        O  0.75722841  0.72427854  0.58809629    -0.60600
H969        H  0.65888063  0.73171839  0.64145315     0.16400
O970        O  0.62161062  0.73063616  0.59017883    -0.60700
H971        H  0.61304662  0.70922286  0.59793986     0.43400
H972        H  0.76375422  0.70105427  0.58533119     0.43300
C973        C  0.70971150  0.71716397  0.38111821    -0.05700
C974        C  0.67536314  0.71558644  0.38018456    -0.33200
C975        C  0.65708657  0.71272043  0.40898048     0.36100
C976        C  0.67307983  0.71172019  0.43968904    -0.06100
C977        C  0.70747809  0.71285734  0.44055459    -0.33100
C978        C  0.72574821  0.71547504  0.41179273     0.36000
H979        H  0.66245543  0.71630378  0.35696206     0.16300
O980        O  0.62364025  0.71084564  0.40659245    -0.60600
H981        H  0.72050709  0.71173819  0.46369373     0.16400
O982        O  0.75926339  0.71645245  0.41416729    -0.60700
H983        H  0.76492357  0.74005328  0.41567386     0.43400
H984        H  0.61604215  0.73387965  0.40558424     0.43300
C985        C  0.82361364  0.80394056  0.37800776    -0.05700
C986        C  0.82711713  0.78623881  0.40746120    -0.33200
C987        C  0.82938138  0.80210911  0.43774934     0.36100
C988        C  0.82782191  0.83666452  0.43951031    -0.06100
C989        C  0.82542676  0.85443699  0.40995547    -0.33100
C990        C  0.82324333  0.83852847  0.37958361     0.36000
H991        H  0.82782242  0.75970770  0.40726879     0.16300
O992        O  0.83268899  0.78327012  0.46541116    -0.60600
H993        H  0.82460447  0.88095440  0.41023332     0.16400
O994        O  0.82044969  0.85723040  0.35172929    -0.60700
H995        H  0.79675901  0.86222492  0.34972670     0.43400
H996        H  0.85665145  0.78073112  0.46856559     0.43300
C997        C  0.53753378  0.79098819  0.03520472    -0.05700
C998        C  0.50750184  0.79507249  0.01862103    -0.33200
C999        C  0.50571993  0.79518872  0.98422136     0.36100
C1000       C  0.53439154  0.79121927  0.96523476    -0.06100
C1001       C  0.56441013  0.78753316  0.98184297    -0.33100
C1002       C  0.56615116  0.78709518  0.01616338     0.36000
H1003       H  0.48501586  0.79802520  0.03232472     0.16300
O1004       O  0.47561188  0.79860955  0.96965718    -0.60600
H1005       H  0.58690255  0.78429004  0.96822521     0.16400
O1006       O  0.59612911  0.78241333  0.03060703    -0.60700
H1007       H  0.59833075  0.75832707  0.03300657     0.43400
H1008       H  0.47273776  0.82254626  0.96653296     0.43300
C1009       C  0.59942493  0.78286560  0.14025293    -0.05700
C1010       C  0.59873816  0.77210071  0.17302756    -0.33200
C1011       C  0.62759935  0.76597779  0.19055953     0.36100
C1012       C  0.65849234  0.77037520  0.17548986    -0.06100
C1013       C  0.65927928  0.78225738  0.14307841    -0.33100
C1014       C  0.63027388  0.78865452  0.12560828     0.36000
H1015       H  0.57561215  0.76743383  0.18514667     0.16300
O1016       O  0.62502532  0.75405342  0.22192740    -0.60600
H1017       H  0.68252324  0.78642135  0.13099177     0.16400
O1018       O  0.63258768  0.80010922  0.09407771    -0.60700
H1019       H  0.63215549  0.82431782  0.09599028     0.43400
H1020       H  0.62267435  0.77368501  0.23600014     0.43300
C1021       C  0.53615381  0.51411886  0.28593164    -0.05700
C1022       C  0.56553211  0.49741974  0.29215634    -0.33200
C1023       C  0.56634575  0.46328756  0.29333871     0.36100
C1024       C  0.53729659  0.44510249  0.28833717    -0.06100
C1025       C  0.50759621  0.46196191  0.28426023    -0.33100
C1026       C  0.50684623  0.49602883  0.28268902     0.36000
H1027       H  0.58828223  0.51079549  0.29523314     0.16300
O1028       O  0.59597369  0.44819247  0.29796308    -0.60600
H1029       H  0.48480722  0.44878606  0.28072492     0.16400
O1030       O  0.47744689  0.51109125  0.27656542    -0.60700
H1031       H  0.47537094  0.51166068  0.25233983     0.43400
H1032       H  0.59749319  0.44417903  0.32189776     0.43300
C1033       C  0.65839023  0.64639988  0.25298330    -0.05700
C1034       C  0.62938163  0.66180733  0.24312897    -0.33200
C1035       C  0.59936452  0.64579441  0.24603209     0.36100
C1036       C  0.59798672  0.61395744  0.25966215    -0.06100
C1037       C  0.62734051  0.59815571  0.26833247    -0.33100
C1038       C  0.65737660  0.61418205  0.26518728     0.36000
H1039       H  0.62998934  0.68648041  0.23325419     0.16300
O1040       O  0.57164734  0.66181365  0.23588633    -0.60600
H1041       H  0.62705336  0.57370458  0.27873193     0.16400
O1042       O  0.68538045  0.59867087  0.27545124    -0.60700
H1043       H  0.68829455  0.60522515  0.29867236     0.43400
H1044       H  0.56827017  0.65493280  0.21283252     0.43300
C1045       C  0.86559473  0.59943086  0.20727906    -0.05700
C1046       C  0.89969698  0.59833641  0.21195321    -0.33200
C1047       C  0.91711240  0.56896326  0.20872863     0.36100
C1048       C  0.90051444  0.53951381  0.20087049    -0.06100
C1049       C  0.86668767  0.54092295  0.19462453    -0.33100
C1050       C  0.84938250  0.57043841  0.19727662     0.36000
H1051       H  0.91297712  0.62016075  0.21920548     0.16300
O1052       O  0.95029159  0.56941825  0.21408739    -0.60600
H1053       H  0.85343417  0.51898492  0.18766975     0.16400
O1054       O  0.81651104  0.57041580  0.19027829    -0.60700
H1055       H  0.81483819  0.57843206  0.16734852     0.43400
H1056       H  0.95301655  0.56583128  0.23798527     0.43300
C1057       C  0.86081581  0.35885583  0.21108098    -0.05700
C1058       C  0.89519349  0.35855746  0.21295780    -0.33200
C1059       C  0.91357450  0.38745899  0.21061709     0.36100
C1060       C  0.89791563  0.41794575  0.20560521    -0.06100
C1061       C  0.86347650  0.41828557  0.20358109    -0.33100
C1062       C  0.84502223  0.38932081  0.20622698     0.36000
H1063       H  0.90817947  0.33580151  0.21711465     0.16300
O1064       O  0.94691270  0.38534384  0.21375344    -0.60600
H1065       H  0.85056534  0.44115847  0.19989508     0.16400
O1066       O  0.81154104  0.39137663  0.20446570    -0.60700
H1067       H  0.80617651  0.38873131  0.18090513     0.43400
H1068       H  0.95122472  0.38686334  0.23762313     0.43300
C1069       C  0.75254919  0.47924244  0.46492088    -0.05700
C1070       C  0.76545494  0.50654026  0.48131223    -0.33200
C1071       C  0.76657074  0.50738419  0.51536839     0.36100
C1072       C  0.75459759  0.48053660  0.53368352    -0.06100
C1073       C  0.74083815  0.45365668  0.51727117    -0.33100
C1074       C  0.73940529  0.45303822  0.48315057     0.36000
H1075       H  0.77570063  0.52699042  0.46773853     0.16300
O1076       O  0.78019148  0.53424829  0.53028561    -0.60600
H1077       H  0.73098035  0.43307255  0.53090911     0.16400
O1078       O  0.72496945  0.42678637  0.46795000    -0.60700
H1079       H  0.70185137  0.43336911  0.46439499     0.43400
H1080       H  0.80380394  0.52904126  0.53271715     0.43300
C1081       C  0.76636922  0.53678845  0.36103512    -0.05700
C1082       C  0.77282627  0.56561114  0.37871440    -0.33200
C1083       C  0.77893379  0.59512699  0.36257906     0.36100
C1084       C  0.77919798  0.59610391  0.32807156    -0.06100
C1085       C  0.77286505  0.56720463  0.31043957    -0.33100
C1086       C  0.76602003  0.53792888  0.32652990     0.36000
H1087       H  0.77324609  0.56543176  0.40526319     0.16300
O1088       O  0.78422565  0.62278058  0.38088744    -0.60600
H1089       H  0.77268754  0.56721105  0.28387814     0.16400
O1090       O  0.75884962  0.51075966  0.30811983    -0.60700
H1091       H  0.73470065  0.51095536  0.30548668     0.43400
H1092       H  0.76217605  0.63224513  0.38452598     0.43300
C1093       C  0.76640358  0.41673331  0.36316324    -0.05700
C1094       C  0.77122001  0.41725572  0.32908395    -0.33200
C1095       C  0.77663722  0.38848673  0.31180054     0.36100
C1096       C  0.77662006  0.35811525  0.32838491    -0.06100
C1097       C  0.77240792  0.35744420  0.36246036    -0.33100
C1098       C  0.76723574  0.38635880  0.37988283     0.36000
H1099       H  0.77110283  0.44010434  0.31551202     0.16300
O1100       O  0.78211471  0.39049492  0.27867304    -0.60600
H1101       H  0.77243063  0.33436195  0.37564902     0.16400
O1102       O  0.76345336  0.38446877  0.41321827    -0.60700
H1103       H  0.73985753  0.37973136  0.41665298     0.43400
H1104       H  0.80621700  0.39263417  0.27636770     0.43300
C1105       C  0.41610043  0.64862191  0.73840341    -0.05700
C1106       C  0.41491374  0.61543098  0.72996857    -0.33200
C1107       C  0.44356760  0.59828110  0.72290726     0.36100
C1108       C  0.47426138  0.61440552  0.72413032    -0.06100
C1109       C  0.47520831  0.64779306  0.73237011    -0.33100
C1110       C  0.44658556  0.66486297  0.73943221     0.36000
H1111       H  0.39160758  0.60276393  0.72833029     0.16300
O1112       O  0.44098929  0.56589465  0.71457288    -0.60600
H1113       H  0.49826339  0.66090692  0.73373341     0.16400
O1114       O  0.44885354  0.69714169  0.74854309    -0.60700
H1115       H  0.45172008  0.70955398  0.72781332     0.43400
H1116       H  0.43962733  0.55391389  0.73571032     0.43300
C1117       C  0.41336233  0.76949518  0.82684566    -0.05700
C1118       C  0.44033019  0.78305494  0.81022790    -0.33200
C1119       C  0.46992359  0.78938288  0.82664496     0.36100
C1120       C  0.47285402  0.78274016  0.86055457    -0.06100
C1121       C  0.44563857  0.76992669  0.87724058    -0.33100
C1122       C  0.41636673  0.76293059  0.86074851     0.36000
H1123       H  0.43867109  0.78850936  0.78426355     0.16300
O1124       O  0.49558732  0.80258705  0.80938425    -0.60600
H1125       H  0.44738872  0.76389883  0.90306373     0.16400
O1126       O  0.39170375  0.74750460  0.87764423    -0.60700
H1127       H  0.38109044  0.76491336  0.89074918     0.43400
H1128       H  0.50351328  0.78468018  0.79505492     0.43300
C1129       C  0.06799819  0.47695650  0.80747669    -0.05700
C1130       C  0.05086291  0.44796872  0.80027638    -0.33200
C1131       C  0.01664928  0.44743295  0.79831492     0.36100
C1132       C  0.99835274  0.47623965  0.80397407    -0.06100
C1133       C  0.01548159  0.50524781  0.81131351    -0.33100
C1134       C  0.04976412  0.50576158  0.81330197     0.36000
H1135       H  0.06399643  0.42545780  0.79552499     0.16300
O1136       O  0.00158676  0.41844296  0.79057779    -0.60600
H1137       H  0.00230087  0.52775022  0.81596207     0.16400
O1138       O  0.06498146  0.53466351  0.82114085    -0.60700
H1139       H  0.06741428  0.53416390  0.84534746     0.43400
H1140       H  0.00064980  0.41806340  0.76628925     0.43300
C1141       C  0.17383735  0.53637909  0.80188482    -0.05700
C1142       C  0.20629705  0.53565157  0.79052458    -0.33200
C1143       C  0.22414528  0.56457981  0.78519098     0.36100
C1144       C  0.20985195  0.59553977  0.79136371    -0.06100
C1145       C  0.17744307  0.59623929  0.80303111    -0.33100
C1146       C  0.15961793  0.56724588  0.80842812     0.36000
H1147       H  0.21787250  0.51249012  0.78489777     0.16300
O1148       O  0.25508732  0.56209862  0.77247378    -0.60600
H1149       H  0.16568456  0.61944044  0.80806873     0.16400
O1150       O  0.12820114  0.56963690  0.81992855    -0.60700
H1151       H  0.12991245  0.56592629  0.84390953     0.43400
H1152       H  0.26971816  0.55940082  0.79172726     0.43300
C1153       C  0.30700245  0.53701189  0.63809174    -0.05700
C1154       C  0.31388018  0.56725076  0.62290557    -0.33200
C1155       C  0.30799251  0.59676736  0.63919580     0.36100
C1156       C  0.29551729  0.59630699  0.67134413    -0.06100
C1157       C  0.28802743  0.56634061  0.68624455    -0.33100
C1158       C  0.29293326  0.53694254  0.66977287     0.36000
H1159       H  0.32425879  0.56813059  0.59850470     0.16300
O1160       O  0.31519910  0.62582305  0.62377151    -0.60600
H1161       H  0.27791920  0.56571819  0.71075442     0.16400
O1162       O  0.28379401  0.50840511  0.68509877    -0.60700
H1163       H  0.26077984  0.50457314  0.67818695     0.43400
H1164       H  0.33823793  0.63077135  0.62980700     0.43300
C1165       C  0.24467471  0.80159160  0.62201081    -0.05700
C1166       C  0.24079904  0.83585666  0.62283732    -0.33200
C1167       C  0.23668862  0.85435374  0.59402172     0.36100
C1168       C  0.23635640  0.83887369  0.56303850    -0.06100
C1169       C  0.23948670  0.80451005  0.56225637    -0.33100
C1170       C  0.24382728  0.78602765  0.59104351     0.36000
H1171       H  0.24146724  0.84873579  0.64600088     0.16300
O1172       O  0.23412031  0.88772669  0.59664436    -0.60600
H1173       H  0.23921023  0.79166373  0.53906772     0.16400
O1174       O  0.24755782  0.75275408  0.58830895    -0.60700
H1175       H  0.27130247  0.74936639  0.58451432     0.43400
H1176       H  0.21058773  0.89191956  0.60087701     0.43300
C1177       C  0.50158040  0.68527909  0.50392220    -0.05700
C1178       C  0.51859846  0.68102682  0.47433522    -0.33200
C1179       C  0.55257471  0.68473043  0.47287309     0.36100
C1180       C  0.57037238  0.69312681  0.50134933    -0.06100
C1181       C  0.55357539  0.69505760  0.53133218    -0.33100
C1182       C  0.51964748  0.69118110  0.53284152     0.36000
H1183       H  0.50547219  0.67579097  0.45183746     0.16300
O1184       O  0.56774977  0.68116306  0.44316798    -0.60600
H1185       H  0.56651919  0.70068329  0.55381455     0.16400
O1186       O  0.50451696  0.69430786  0.56265151    -0.60700
H1187       H  0.50152200  0.71822215  0.56573714     0.43400
H1188       H  0.57323107  0.65755174  0.44173781     0.43300
C1189       C  0.39719672  0.70065697  0.56187756    -0.05700
C1190       C  0.41460066  0.70833543  0.59060775    -0.33200
C1191       C  0.39824739  0.71520439  0.61984859     0.36100
C1192       C  0.36367941  0.71477449  0.62077171    -0.06100
C1193       C  0.34634836  0.70709752  0.59198056    -0.33100
C1194       C  0.36267627  0.70000422  0.56287503     0.36000
H1195       H  0.44110441  0.70925180  0.59051336     0.16300
O1196       O  0.41645649  0.72194721  0.64731673    -0.60600
H1197       H  0.31982978  0.70617789  0.59190797     0.16400
O1198       O  0.34452862  0.69126490  0.53594559    -0.60700
H1199       H  0.33548073  0.71207883  0.52721085     0.43400
H1200       H  0.42077605  0.70033094  0.65763112     0.43300
C1201       C  0.47282721  0.34299746  0.73260254    -0.05700
C1202       C  0.47363373  0.31202084  0.74781896    -0.33200
C1203       C  0.44483391  0.29476456  0.75428353     0.36100
C1204       C  0.41440924  0.30857084  0.74597617    -0.06100
C1205       C  0.41329527  0.34005131  0.73216410    -0.33100
C1206       C  0.44216256  0.35712069  0.72504933     0.36000
H1207       H  0.49668842  0.30082505  0.75464201     0.16300
O1208       O  0.44661772  0.26476938  0.76948904    -0.60600
H1209       H  0.38998740  0.35086384  0.72547313     0.16400
O1210       O  0.43995422  0.38713512  0.71001377    -0.60700
H1211       H  0.44083295  0.38247480  0.68618307     0.43400
H1212       H  0.45320247  0.24919143  0.75212258     0.43300
C1213       C  0.41269781  0.18613847  0.82945518    -0.05700
C1214       C  0.41294771  0.18552648  0.86397709    -0.33200
C1215       C  0.44234455  0.18239866  0.88176036     0.36100
C1216       C  0.47271456  0.17996637  0.86518517    -0.06100
C1217       C  0.47234705  0.18015412  0.83075484    -0.33100
C1218       C  0.44303571  0.18284988  0.81302186     0.32800
H1219       H  0.39029306  0.18816049  0.87747549     0.16300
O1220       O  0.44096490  0.18300280  0.91534078    -0.60600
H1221       H  0.49501747  0.17812253  0.81718785     0.16400
O1222       O  0.44470075  0.18278978  0.77946121    -0.60700
H1223       H  0.44232296  0.15947551  0.77309731     0.43400
H1224       H  0.43641939  0.16004347  0.92201890     0.43300
C1225       C  0.31260663  0.41736138  0.63921839    -0.05700
C1226       C  0.30068646  0.39003985  0.62214910    -0.33200
C1227       C  0.29333804  0.36090820  0.63867159     0.36100
C1228       C  0.29823243  0.35868960  0.67292156    -0.06100
C1229       C  0.31050456  0.38616946  0.68975658    -0.33100
C1230       C  0.31787301  0.41511729  0.67321440     0.36000
H1231       H  0.29642258  0.39142221  0.59595566     0.16300
O1232       O  0.28200896  0.33474954  0.62088604    -0.60600
H1233       H  0.31488298  0.38531698  0.71594375     0.16400
O1234       O  0.33064733  0.44093867  0.69053766    -0.60700
H1235       H  0.35473820  0.43811348  0.68945949     0.43400
H1236       H  0.25791203  0.33759930  0.61986544     0.43300
C1237       C  0.20788939  0.35573695  0.79468722    -0.05700
C1238       C  0.17402424  0.35514464  0.80112259    -0.33200
C1239       C  0.15626534  0.38422310  0.80567883     0.36100
C1240       C  0.17223889  0.41502066  0.80393457    -0.06100
C1241       C  0.20620147  0.41544531  0.79839656    -0.33100
C1242       C  0.22387135  0.38652818  0.79363102     0.36000
H1243       H  0.16094151  0.33203788  0.80207742     0.16300
O1244       O  0.12315485  0.38203912  0.81083096    -0.60600
H1245       H  0.21932348  0.43848169  0.79678267     0.16400
O1246       O  0.25655105  0.38906532  0.78629639    -0.60700
H1247       H  0.26791877  0.38966794  0.80778784     0.43400
H1248       H  0.12061567  0.37995088  0.83492580     0.43300
C1249       C  0.22532537  0.01455131  0.50267697    -0.05700
C1250       C  0.23611184  0.99756887  0.47491031    -0.33200
C1251       C  0.23762574  0.96329625  0.47450883     0.36100
C1252       C  0.22816964  0.94478782  0.50231271    -0.06100
C1253       C  0.21715903  0.96172250  0.53014675    -0.33100
C1254       C  0.21551539  0.99612409  0.53047077     0.36000
H1255       H  0.24424153  0.01089123  0.45340051     0.16300
O1256       O  0.24994943  0.94833692  0.44716226    -0.60600
H1257       H  0.20958256  0.94828420  0.55179590     0.16400
O1258       O  0.20437232  0.01131869  0.55821145    -0.60700
H1259       H  0.18023967  0.01237601  0.55557620     0.43400
H1260       H  0.23244779  0.95026515  0.43038270     0.43300
C1261       C  0.23105860  0.11872398  0.56348846    -0.05700
C1262       C  0.22457836  0.15252453  0.56487757    -0.33200
C1263       C  0.22879341  0.17016062  0.59409681     0.36100
C1264       C  0.23983423  0.15408728  0.62277636    -0.06100
C1265       C  0.24501843  0.12008322  0.62161603    -0.33100
C1266       C  0.24072605  0.10247559  0.59256880     0.36000
H1267       H  0.21645163  0.16550121  0.54313888     0.16300
O1268       O  0.22155863  0.20296490  0.59437259    -0.60600
H1269       H  0.25360365  0.10699549  0.64311115     0.16400
O1270       O  0.24803037  0.06969200  0.59262972    -0.60700
H1271       H  0.22854624  0.05875294  0.60223063     0.43400
H1272       H  0.24090659  0.21396478  0.58460645     0.43300
C1273       C  0.24393697  0.15708219  0.38296727    -0.05700
C1274       C  0.23553372  0.12359848  0.38206789    -0.33200
C1275       C  0.23075090  0.10532052  0.41096108     0.36100
C1276       C  0.23423614  0.12027547  0.44202111    -0.06100
C1277       C  0.24180282  0.15394074  0.44289361    -0.33100
C1278       C  0.24642224  0.17224601  0.41405650     0.36000
H1279       H  0.23293470  0.11120065  0.35876913     0.16300
O1280       O  0.22220888  0.07291972  0.40830569    -0.60600
H1281       H  0.24464615  0.16633935  0.46616446     0.16400
O1282       O  0.25450301  0.20475305  0.41686981    -0.60700
H1283       H  0.23328067  0.21644721  0.41809789     0.43400
H1284       H  0.24312758  0.06109226  0.40516025     0.43300
C1285       C  0.49923446  0.27180001  0.50030108    -0.05700
C1286       C  0.51458099  0.26241872  0.47106798    -0.33200
C1287       C  0.54833399  0.25874118  0.46953954     0.36100
C1288       C  0.56771199  0.26527430  0.49737418    -0.06100
C1289       C  0.55260062  0.27682947  0.52602441    -0.33100
C1290       C  0.51862120  0.28016434  0.52763152     0.36000
H1291       H  0.50033734  0.25589430  0.44961260     0.16300
O1292       O  0.56169969  0.24690711  0.44117874    -0.60600
H1293       H  0.56705546  0.28254641  0.54757016     0.16400
O1294       O  0.50472302  0.29066620  0.55629128    -0.60700
H1295       H  0.50061431  0.31438034  0.55296534     0.43400
H1296       H  0.56086165  0.22271003  0.44344592     0.43300
C1297       C  0.36513310  0.23936022  0.62283992    -0.05700
C1298       C  0.39728751  0.25136724  0.62363106    -0.33200
C1299       C  0.41425847  0.25753778  0.59453783     0.36100
C1300       C  0.39894264  0.25166646  0.56398866    -0.06100
C1301       C  0.36705820  0.23860724  0.56352513    -0.33100
C1302       C  0.35018755  0.23252477  0.59253502     0.36000
H1303       H  0.40897920  0.25688665  0.64685165     0.16300
O1304       O  0.44527929  0.27033061  0.59642404    -0.60600
H1305       H  0.35491064  0.23298228  0.54059878     0.16400
O1306       O  0.31944540  0.21889061  0.59106136    -0.60700
H1307       H  0.30461205  0.23714007  0.58498826     0.43400
H1308       H  0.45987195  0.25114328  0.59934216     0.43300
C1309       C  0.39589696  0.25451897  0.44349595    -0.05700
C1310       C  0.41156402  0.26256382  0.41379818    -0.33200
C1311       C  0.39648532  0.25635356  0.38374914     0.36100
C1312       C  0.36514582  0.24216465  0.38308769    -0.06100
C1313       C  0.34943113  0.23405968  0.41249706    -0.33100
C1314       C  0.36443587  0.24013805  0.44255369     0.36000
H1315       H  0.43557022  0.27392241  0.41371172     0.16300
O1316       O  0.41169558  0.26601841  0.35533819    -0.60600
H1317       H  0.32523863  0.22305974  0.41217178     0.16400
O1318       O  0.34832139  0.23116653  0.47064823    -0.60700
H1319       H  0.33328662  0.24958357  0.47542693     0.43400
H1320       H  0.42723804  0.24815768  0.35011234     0.43300
C1321       C  0.41854376  0.65183518  0.26553439    -0.05700
C1322       C  0.44823632  0.66914588  0.26716753    -0.33200
C1323       C  0.47791485  0.65278592  0.27045109     0.36100
C1324       C  0.47834975  0.61831297  0.27238881    -0.06100
C1325       C  0.44852068  0.60100620  0.27180712    -0.33100
C1326       C  0.41879563  0.61743175  0.26831162     0.36000
H1327       H  0.44868552  0.69564030  0.26538890     0.16300
O1328       O  0.50618755  0.67090422  0.27243365    -0.60600
H1329       H  0.44807518  0.57453080  0.27357220     0.16400
O1330       O  0.39021702  0.59966959  0.26865994    -0.60700
H1331       H  0.38768907  0.59111447  0.24606275     0.43400
H1332       H  0.50984394  0.67961775  0.24999889     0.43300
C1333       C  0.41777242  0.77421241  0.17479815    -0.05700
C1334       C  0.44752833  0.77736814  0.19201841    -0.33200
C1335       C  0.47730332  0.78227678  0.17563918     0.36100
C1336       C  0.47824585  0.78370405  0.14098726    -0.06100
C1337       C  0.44841240  0.78149954  0.12378831    -0.33100
C1338       C  0.41855996  0.77684701  0.14019778     0.36000
H1339       H  0.44797044  0.77574902  0.21852304     0.16300
O1340       O  0.50532048  0.78509001  0.19402384    -0.60600
H1341       H  0.44807338  0.78287596  0.09727205     0.16400
O1342       O  0.39038278  0.77493086  0.12192934    -0.60700
H1343       H  0.38921847  0.75189797  0.11432109     0.43400
H1344       H  0.50777365  0.80888236  0.19828885     0.43300
C1345       C  0.36891350  0.71950257  0.38224319    -0.05700
C1346       C  0.35099341  0.70804160  0.40941731    -0.33200
C1347       C  0.36639278  0.69992221  0.43867731     0.36100
C1348       C  0.40046682  0.70386351  0.44187324    -0.06100
C1349       C  0.41859099  0.71563308  0.41500484    -0.33100
C1350       C  0.40310691  0.72353890  0.38537312     0.36000
H1351       H  0.32470957  0.70459564  0.40807394     0.16300
O1352       O  0.34774022  0.68761998  0.46379157    -0.60600
H1353       H  0.44483965  0.71905426  0.41700753     0.16400
O1354       O  0.42179293  0.73437580  0.35961894    -0.60700
H1355       H  0.42259345  0.75854643  0.36195399     0.43400
H1356       H  0.34768536  0.66354068  0.46061633     0.43300
C1357       C  0.24995505  0.80704722  0.38148026    -0.05700
C1358       C  0.23543864  0.83822285  0.38159326    -0.33200
C1359       C  0.22991883  0.85506793  0.41110063     0.36100
C1360       C  0.23913821  0.84091156  0.44145906    -0.06100
C1361       C  0.25340388  0.80965494  0.44127564    -0.33100
C1362       C  0.25876529  0.79279880  0.41192746     0.36000
H1363       H  0.22806495  0.84960435  0.35871976     0.16300
O1364       O  0.21442482  0.88483448  0.40997605    -0.60600
H1365       H  0.26108974  0.79825899  0.46403563     0.16400
O1366       O  0.27400684  0.76291069  0.41339357    -0.60700
H1367       H  0.25627666  0.74686911  0.41794145     0.43400
H1368       H  0.23018533  0.89998305  0.39931376     0.43300
C1369       C  0.07357629  0.48133787  0.19402875    -0.05700
C1370       C  0.05736297  0.45161829  0.20089533    -0.33200
C1371       C  0.02309102  0.44958782  0.20144987     0.36100
C1372       C  0.00391946  0.47773883  0.19544877    -0.06100
C1373       C  0.02014734  0.50722349  0.18772231    -0.33100
C1374       C  0.05440358  0.50922672  0.18698037     0.36000
H1375       H  0.07124861  0.42967929  0.20634672     0.16300
O1376       O  0.00885690  0.42005365  0.20882715    -0.60600
H1377       H  0.00628870  0.52917422  0.18225895     0.16400
O1378       O  0.06870827  0.53848168  0.17855027    -0.60700
H1379       H  0.06541286  0.55297024  0.19773280     0.43400
H1380       H  0.00722639  0.40836883  0.18759331     0.43300
C1381       C  0.21374319  0.60365110  0.20940733    -0.05700
C1382       C  0.17939394  0.60398395  0.20680815    -0.33200
C1383       C  0.16146325  0.57496938  0.20254751     0.36100
C1384       C  0.17773055  0.54448283  0.20043795    -0.06100
C1385       C  0.21214081  0.54433133  0.20205971    -0.33100
C1386       C  0.23004995  0.57324866  0.20649949     0.36000
H1387       H  0.16605221  0.62679357  0.20886709     0.16300
O1388       O  0.12800490  0.57694614  0.20087518    -0.60600
H1389       H  0.22553238  0.52152979  0.20043137     0.16400
O1390       O  0.26348070  0.57106635  0.20903769    -0.60700
H1391       H  0.27167679  0.57271859  0.18624090     0.43400
H1392       H  0.12054533  0.57744484  0.22396476     0.43300
C1393       C  0.21169314  0.36222256  0.21315172    -0.05700
C1394       C  0.22928872  0.39096620  0.20538967    -0.33200
C1395       C  0.21335371  0.42111469  0.20088782     0.36100
C1396       C  0.17889175  0.42308430  0.20336379    -0.06100
C1397       C  0.16136335  0.39433850  0.21095285    -0.33100
C1398       C  0.17730323  0.36440717  0.21614904     0.36000
H1399       H  0.25570889  0.39029795  0.20311706     0.16300
O1400       O  0.23184071  0.44831011  0.19374630    -0.60600
H1401       H  0.13500393  0.39503722  0.21377689     0.16400
O1402       O  0.15899093  0.33790704  0.22588120    -0.60700
H1403       H  0.14942399  0.32889249  0.20544280     0.43400
H1404       H  0.24001514  0.45626062  0.21521534     0.43300
C1405       C  0.33548201  0.47727819  0.53726075    -0.05700
C1406       C  0.33951648  0.50722930  0.52073569    -0.33200
C1407       C  0.33817620  0.50885433  0.48652723     0.36100
C1408       C  0.33250231  0.48013565  0.46814373    -0.06100
C1409       C  0.33221984  0.44982492  0.48460225    -0.33100
C1410       C  0.33403595  0.44815517  0.51869972     0.36000
H1411       H  0.34230390  0.52983691  0.53431718     0.16300
O1412       O  0.34200941  0.53871476  0.47153536    -0.60600
H1413       H  0.32914831  0.42715311  0.47121505     0.16400
O1414       O  0.33229008  0.41793947  0.53340710    -0.60700
H1415       H  0.35537914  0.41135471  0.53709078     0.43400
H1416       H  0.32179011  0.55111025  0.47661585     0.43300
C1417       C  0.30552863  0.54227796  0.36714470    -0.05700
C1418       C  0.29733871  0.54161570  0.33362642    -0.33200
C1419       C  0.29297849  0.57053824  0.31585717     0.36100
C1420       C  0.29691816  0.60107928  0.33140447    -0.06100
C1421       C  0.30436076  0.60193600  0.36492854    -0.33100
C1422       C  0.30893610  0.57298692  0.38272435     0.36000
H1423       H  0.29434156  0.51857317  0.32085322     0.16300
O1424       O  0.28475253  0.56857505  0.28328986    -0.60600
H1425       H  0.30753863  0.62519229  0.37729970     0.16400
O1426       O  0.31661139  0.57525637  0.41532861    -0.60700
H1427       H  0.34062215  0.57878597  0.41599013     0.43400
H1428       H  0.26049254  0.56877478  0.28276764     0.43300
C1429       C  0.30178991  0.42199144  0.36701117    -0.05700
C1430       C  0.29798883  0.42284091  0.33277310    -0.33200
C1431       C  0.29365794  0.39407927  0.31484725     0.36100
C1432       C  0.29311927  0.36351835  0.33105985    -0.06100
C1433       C  0.29554782  0.36268630  0.36539610    -0.33100
C1434       C  0.29960588  0.39150661  0.38337865     0.36000
H1435       H  0.29877827  0.44588331  0.31954671     0.16300
O1436       O  0.28901674  0.39627900  0.28158143    -0.60600
H1437       H  0.29486212  0.33952790  0.37844203     0.16400
O1438       O  0.30159683  0.38936156  0.41687805    -0.60700
H1439       H  0.27882065  0.39220735  0.42474558     0.43400
H1440       H  0.31115482  0.39978948  0.27223221     0.43300
C1441       C  0.15730601  0.27225583  0.32834527    -0.05700
C1442       C  0.12830703  0.27955811  0.31113399    -0.33200
C1443       C  0.09825783  0.28272042  0.32739817     0.36100
C1444       C  0.09634241  0.27802962  0.36168418    -0.06100
C1445       C  0.12549748  0.27175601  0.37901597    -0.33100
C1446       C  0.15560200  0.26892994  0.36283185     0.36000
H1447       H  0.12872066  0.28257011  0.28474531     0.16300
O1448       O  0.07092520  0.29005008  0.30926444    -0.60600
H1449       H  0.12501519  0.26809296  0.40531432     0.16400
O1450       O  0.18281814  0.26117148  0.38100657    -0.60700
H1451       H  0.19188837  0.28249085  0.38834235     0.43400
H1452       H  0.07018965  0.31432394  0.30841146     0.43300
C1453       C  0.91411755  0.26635577  0.32645874    -0.05700
C1454       C  0.94417855  0.26490820  0.30979813    -0.33200
C1455       C  0.97408681  0.26754574  0.32645120     0.36100
C1456       C  0.97485265  0.27271808  0.36071763    -0.06100
C1457       C  0.94477762  0.27471238  0.37741419    -0.33100
C1458       C  0.91477284  0.27156682  0.36076420     0.36000
H1459       H  0.94475561  0.26089418  0.28358810     0.16300
O1460       O  0.00237580  0.26445731  0.30871786    -0.60600
H1461       H  0.94434776  0.27854943  0.40367013     0.16400
O1462       O  0.88636691  0.27301898  0.37858340    -0.60700
H1463       H  0.88051036  0.29657627  0.37915372     0.43400
H1464       H  0.00754017  0.24072225  0.30922553     0.43300
C1465       C  0.15457719  0.15384640  0.24499447    -0.05700
C1466       C  0.15506745  0.11960872  0.24279961    -0.33200
C1467       C  0.12627892  0.10197355  0.23740521     0.36100
C1468       C  0.09608903  0.11860437  0.23427580    -0.06100
C1469       C  0.09552245  0.15281407  0.23777036    -0.33100
C1470       C  0.12429410  0.17040149  0.24323170     0.36000
H1471       H  0.17798738  0.10636363  0.24440682     0.16300
O1472       O  0.12810729  0.06848050  0.23568209    -0.60600
H1473       H  0.07271863  0.16622683  0.23600441     0.16400
O1474       O  0.12242082  0.20380033  0.24654739    -0.60700
H1475       H  0.11984517  0.20764211  0.27039891     0.43400
H1476       H  0.13431043  0.06367942  0.21269393     0.43300
C1477       C  0.97603916  0.11749711  0.23131010    -0.05700
C1478       C  0.97666058  0.15101347  0.23917313    -0.33200
C1479       C  0.94776417  0.16818950  0.24456798     0.36100
C1480       C  0.91742806  0.15192462  0.24202904    -0.06100
C1481       C  0.91668074  0.11831097  0.23531753    -0.33100
C1482       C  0.94556094  0.10108440  0.22979954     0.36000
H1483       H  0.99961810  0.16420747  0.24125692     0.16300
O1484       O  0.94952353  0.20056521  0.25341696    -0.60600
H1485       H  0.89352814  0.10541128  0.23339550     0.16400
O1486       O  0.94348687  0.06820967  0.22329829    -0.60700
H1487       H  0.93933999  0.06675289  0.19938293     0.43400
H1488       H  0.95400175  0.21273577  0.23281647     0.43300
C1489       C  0.97899961  0.68779411  0.36154776    -0.05700
C1490       C  0.95014411  0.69722457  0.37776789    -0.33200
C1491       C  0.92023204  0.70005092  0.36097702     0.36100
C1492       C  0.91833811  0.69319234  0.32704545    -0.06100
C1493       C  0.94721492  0.68393628  0.31078399    -0.33100
C1494       C  0.97713877  0.68113924  0.32759393     0.36000
H1495       H  0.95073244  0.70305717  0.40364920     0.16300
O1496       O  0.89342267  0.71114104  0.37781728    -0.60600
H1497       H  0.94670734  0.67875686  0.28476219     0.16400
O1498       O  0.00435807  0.67190835  0.31034365    -0.60700
H1499       H  0.00602427  0.64786855  0.31359374     0.43400
H1500       H  0.88394027  0.69143898  0.38849719     0.43300
C1501       C  0.10072516  0.68462460  0.36414326    -0.05700
C1502       C  0.10238251  0.67638936  0.33069327    -0.33200
C1503       C  0.13186635  0.67898773  0.31307749     0.36100
C1504       C  0.16069069  0.69047272  0.32860758    -0.06100
C1505       C  0.15927971  0.69748073  0.36230658    -0.33100
C1506       C  0.12987624  0.69487665  0.37989574     0.36000
H1507       H  0.08063430  0.66800929  0.31794810     0.16300
O1508       O  0.13197496  0.67054798  0.28056319    -0.60600
H1509       H  0.18084420  0.70636251  0.37502852     0.16400
O1510       O  0.12989778  0.70366479  0.41228549    -0.60700
H1511       H  0.12536234  0.72752452  0.41233921     0.43400
H1512       H  0.13838899  0.64711752  0.28017757     0.43300
C1513       C  0.03840152  0.94703186  0.22083567    -0.05700
C1514       C  0.01117067  0.96302998  0.20706187    -0.33200
C1515       C  0.01084538  0.99715152  0.20361330     0.36100
C1516       C  0.03781581  0.01578925  0.21458408    -0.06100
C1517       C  0.06543775  0.99961523  0.22702816    -0.33100
C1518       C  0.06583715  0.96577394  0.23049427     0.36000
H1519       H  0.99005415  0.94909940  0.19895443     0.16300
O1520       O  0.98398800  0.01190821  0.18980903    -0.60600
H1521       H  0.08648690  0.01325723  0.23574250     0.16400
O1522       O  0.09289328  0.95156569  0.24450554    -0.60700
H1523       H  0.08876872  0.95198485  0.26845112     0.43400
H1524       H  0.98975900  0.01521031  0.16642285     0.43300
C1525       C  0.91868159  0.80777577  0.24145350    -0.05700
C1526       C  0.91836734  0.83976163  0.22898336    -0.33200
C1527       C  0.94752175  0.85738245  0.22510485     0.36100
C1528       C  0.97773355  0.84320911  0.23441875    -0.06100
C1529       C  0.97785022  0.81104509  0.24690744    -0.33100
C1530       C  0.94873992  0.79337448  0.25041540     0.36000
H1531       H  0.89548748  0.85083843  0.22132180     0.16300
O1532       O  0.94618688  0.88782198  0.21084345    -0.60600
H1533       H  0.00055691  0.79947416  0.25430455     0.16400
O1534       O  0.94996074  0.76209978  0.26283085    -0.60700
H1535       H  0.94680759  0.76451082  0.28680627     0.43400
H1536       H  0.94042476  0.90302107  0.22885006     0.43300
C1537       C  0.09853567  0.84474967  0.23860044    -0.05700
C1538       C  0.09863732  0.81240856  0.25051686    -0.33200
C1539       C  0.12800074  0.79547871  0.25495663     0.36100
C1540       C  0.15800280  0.81075211  0.24728922    -0.06100
C1541       C  0.15813723  0.84320380  0.23612199    -0.33100
C1542       C  0.12882812  0.86012120  0.23141195     0.36000
H1543       H  0.07590000  0.80010451  0.25658459     0.16300
O1544       O  0.12708322  0.76401350  0.26688136    -0.60600
H1545       H  0.18102880  0.85517873  0.22989379     0.16400
O1546       O  0.13029223  0.89145992  0.21926285    -0.60700
H1547       H  0.12966254  0.88903914  0.19508817     0.43400
H1548       H  0.12947810  0.76617016  0.29097434     0.43300
C1549       C  0.03390953  0.68230945  0.53821238    -0.05700
C1550       C  0.06407788  0.67970026  0.52181415    -0.33200
C1551       C  0.06596513  0.67972553  0.48749704     0.36100
C1552       C  0.03725434  0.68229351  0.46821524    -0.06100
C1553       C  0.00700711  0.68480655  0.48461212    -0.33100
C1554       C  0.00514256  0.68479673  0.51903518     0.36000
H1555       H  0.08667793  0.67754193  0.53559110     0.16300
O1556       O  0.09618845  0.67674028  0.47327361    -0.60600
H1557       H  0.98445722  0.68700082  0.47075887     0.16400
O1558       O  0.97504650  0.68814754  0.53348134    -0.60700
H1559       H  0.96531016  0.66585813  0.53338098     0.43400
H1560       H  0.10602583  0.69894775  0.47439530     0.43300
C1561       C  0.09443494  0.68473162  0.64335316    -0.05700
C1562       C  0.09531722  0.67795872  0.67721030    -0.33200
C1563       C  0.12483481  0.67890041  0.69488304     0.36100
C1564       C  0.15445516  0.68713195  0.67888611    -0.06100
C1565       C  0.15357878  0.69347662  0.64504702    -0.33100
C1566       C  0.12419328  0.69247313  0.62740093     0.36000
H1567       H  0.07303637  0.67170530  0.69018596     0.16300
O1568       O  0.12422250  0.67196600  0.72780726    -0.60600
H1569       H  0.17572807  0.70025177  0.63209140     0.16400
O1570       O  0.12507479  0.69949969  0.59452693    -0.60700
H1571       H  0.12298248  0.72365151  0.59302589     0.43400
H1572       H  0.12819006  0.64804779  0.72943444     0.43300
C1573       C  0.97294999  0.67959926  0.64383286    -0.05700
C1574       C  0.94309544  0.67960035  0.62652346    -0.33200
C1575       C  0.91294885  0.68208149  0.64281625     0.36100
C1576       C  0.91190470  0.68464719  0.67740183    -0.06100
C1577       C  0.94165121  0.68255488  0.69477485    -0.33100
C1578       C  0.97174767  0.67990467  0.67849843     0.36000
H1579       H  0.94293981  0.67852197  0.60000304     0.16300
O1580       O  0.88476661  0.68233390  0.62444278    -0.60600
H1581       H  0.94187098  0.68383915  0.72128988     0.16400
O1582       O  0.99982009  0.67878887  0.69697460    -0.60700
H1583       H  0.00263058  0.65536431  0.70289457     0.43400
H1584       H  0.88282315  0.70505175  0.61594449     0.43300
C1585       C  0.09459875  0.84088751  0.75338015    -0.05700
C1586       C  0.09404070  0.80644778  0.75287724    -0.33200
C1587       C  0.12299025  0.78834021  0.75436425     0.36100
C1588       C  0.15347237  0.80459502  0.75601498    -0.06100
C1589       C  0.15408721  0.83898659  0.75674988    -0.33100
C1590       C  0.12511002  0.85709892  0.75582308     0.36000
H1591       H  0.07106190  0.79326700  0.75093433     0.16300
O1592       O  0.12116085  0.75481866  0.75256806    -0.60600
H1593       H  0.17718292  0.85202255  0.75836822     0.16400
O1594       O  0.12712249  0.89060334  0.75740046    -0.60700
H1595       H  0.12553232  0.89588446  0.78106459     0.43400
H1596       H  0.11584037  0.74740333  0.77511700     0.43300
C1597       C  0.97402739  0.84142716  0.75673146    -0.05700
C1598       C  0.97424443  0.80797553  0.76480048    -0.33200
C1599       C  0.94514610  0.79006697  0.76658100     0.36100
C1600       C  0.91485087  0.80563159  0.76041125    -0.06100
C1601       C  0.91457671  0.83935659  0.75376034    -0.33100
C1602       C  0.94361221  0.85714568  0.75164231     0.36000
H1603       H  0.99711041  0.79530911  0.76929007     0.16300
O1604       O  0.94686668  0.75731993  0.77404121    -0.60600
H1605       H  0.89174237  0.85214113  0.74940368     0.16400
O1606       O  0.94165218  0.88982534  0.74418066    -0.60700
H1607       H  0.94074471  0.89088826  0.71989380     0.43400
H1608       H  0.95040564  0.74617670  0.75277364     0.43300
C1609       C  0.03332252  0.27650737  0.53620569    -0.05700
C1610       C  0.06331324  0.27668452  0.51933755    -0.33200
C1611       C  0.06448979  0.27748177  0.48501560     0.36100
C1612       C  0.03520223  0.27793535  0.46638288    -0.06100
C1613       C  0.00521578  0.27804956  0.48327099    -0.33100
C1614       C  0.00404220  0.27728371  0.51759136     0.36000
H1615       H  0.08624159  0.27609383  0.53273187     0.16300
O1616       O  0.09457447  0.27704173  0.47015426    -0.60600
H1617       H  0.98228590  0.27857758  0.46988140     0.16400
O1618       O  0.97395526  0.27754847  0.53245896    -0.60700
H1619       H  0.96717596  0.25422087  0.53372592     0.43400
H1620       H  0.10182222  0.30026456  0.46954439     0.43300
C1621       C  0.09370079  0.26870311  0.64142083    -0.05700
C1622       C  0.12348479  0.27386800  0.62480705    -0.33200
C1623       C  0.15372593  0.27170524  0.64113579     0.36100
C1624       C  0.15488916  0.26427287  0.67498383    -0.06100
C1625       C  0.12506949  0.25927413  0.69154983    -0.33100
C1626       C  0.09493459  0.26104657  0.67520347     0.36000
H1627       H  0.12350751  0.27966655  0.59888087     0.16300
O1628       O  0.18190390  0.27645159  0.62348951    -0.60600
H1629       H  0.12492556  0.25317082  0.71738718     0.16400
O1630       O  0.06694610  0.25477035  0.69267078    -0.60700
H1631       H  0.06384227  0.23068980  0.69148062     0.43400
H1632       H  0.18491351  0.30054994  0.62244619     0.43300
C1633       C  0.97204083  0.27331857  0.64053654    -0.05700
C1634       C  0.94288519  0.26826831  0.62275868    -0.33200
C1635       C  0.91255119  0.26562126  0.63854579     0.36100
C1636       C  0.91061158  0.26801851  0.67303362    -0.06100
C1637       C  0.93962858  0.27434864  0.69068904    -0.33100
C1638       C  0.96992078  0.27724194  0.67484640     0.36000
H1639       H  0.94349962  0.26552159  0.59637890     0.16300
O1640       O  0.88514032  0.26007621  0.61984877    -0.60600
H1641       H  0.93905795  0.27673268  0.71712064     0.16400
O1642       O  0.99723511  0.28361410  0.69338925    -0.60700
H1643       H  0.99947960  0.30782721  0.69329148     0.43400
H1644       H  0.88341309  0.23589837  0.61802140     0.43300
C1645       C  0.03427539  0.01304683  0.73209012    -0.05700
C1646       C  0.00587186  0.99672616  0.74239980    -0.33200
C1647       C  0.00530296  0.96287650  0.74612524     0.36100
C1648       C  0.03367754  0.94434737  0.73951906    -0.06100
C1649       C  0.06198379  0.96054702  0.72851232    -0.33100
C1650       C  0.06249772  0.99460338  0.72483672     0.36000
H1651       H  0.98391636  0.01021529  0.74853134     0.16300
O1652       O  0.97728897  0.94855081  0.75795862    -0.60600
H1653       H  0.08393749  0.94686190  0.72281434     0.16400
O1654       O  0.09050274  0.00938667  0.71359602    -0.60700
H1655       H  0.10573755  0.00945145  0.73256628     0.43400
H1656       H  0.96065488  0.95145434  0.74042774     0.43300
C1657       C  0.09213511  0.11839612  0.73373185    -0.05700
C1658       C  0.09239080  0.14821165  0.75068754    -0.33200
C1659       C  0.12155731  0.16528234  0.75570325     0.36100
C1660       C  0.15130574  0.15238866  0.74375141    -0.06100
C1661       C  0.15067838  0.12312892  0.72569184    -0.33100
C1662       C  0.12147609  0.10613358  0.72070206     0.36000
H1663       H  0.07001762  0.15801905  0.76095126     0.16300
O1664       O  0.12069168  0.19385344  0.77332136    -0.60600
H1665       H  0.17289158  0.11319419  0.71523437     0.16400
O1666       O  0.12172911  0.07813757  0.70217528    -0.60700
H1667       H  0.13354786  0.06165294  0.71560994     0.43400
H1668       H  0.11128758  0.21044050  0.75820777     0.43300
C1669       C  0.91304830  0.14879918  0.74848229    -0.05700
C1670       C  0.91310649  0.11624602  0.73733997    -0.33200
C1671       C  0.94238745  0.09958591  0.73219973     0.36100
C1672       C  0.97250618  0.11533140  0.73850039    -0.06100
C1673       C  0.97252809  0.14781653  0.74962780    -0.33100
C1674       C  0.94329479  0.16455818  0.75462182     0.36000
H1675       H  0.89038137  0.10362281  0.73186921     0.16300
O1676       O  0.94118361  0.06851436  0.71949300    -0.60600
H1677       H  0.99534018  0.16048613  0.75461317     0.16400
O1678       O  0.94485993  0.19664959  0.76442291    -0.60700
H1679       H  0.94560615  0.19581517  0.78871172     0.43400
H1680       H  0.93520105  0.05408383  0.73816665     0.43300
C1681       C  0.36246218  0.10297587  0.29566313    -0.05700
C1682       C  0.39677213  0.10274166  0.29204248    -0.33200
C1683       C  0.41507721  0.07388039  0.29604299     0.36100
C1684       C  0.39940934  0.04406619  0.30435937    -0.06100
C1685       C  0.36517640  0.04447800  0.30881369    -0.33100
C1686       C  0.34682899  0.07329819  0.30453905     0.36000
H1687       H  0.40963043  0.12492302  0.28506368     0.16300
O1688       O  0.44823694  0.07519090  0.29095007    -0.60600
H1689       H  0.35228447  0.02218868  0.31537105     0.16400
O1690       O  0.31351659  0.07182573  0.30858227    -0.60700
H1691       H  0.30977747  0.07673971  0.33207277     0.43400
H1692       H  0.45111559  0.07150792  0.26710731     0.43300
C1693       C  0.39860158  0.92234295  0.30511655    -0.05700
C1694       C  0.41605882  0.89324351  0.29925289    -0.33200
C1695       C  0.39993351  0.86341570  0.29351862     0.36100
C1696       C  0.36532772  0.86171844  0.29385302    -0.06100
C1697       C  0.34786836  0.89060659  0.30092252    -0.33100
C1698       C  0.36406242  0.92046404  0.30675451     0.36000
H1699       H  0.44255600  0.89357519  0.29812864     0.16300
O1700       O  0.41851786  0.83626416  0.28701460    -0.60600
H1701       H  0.32135651  0.89025171  0.30176880     0.16400
O1702       O  0.34565270  0.94763936  0.31361808    -0.60700
H1703       H  0.34396537  0.94811456  0.33786961     0.43400
H1704       H  0.42122277  0.83612065  0.26285452     0.43300
C1705       C  0.27701697  0.10093383  0.17374637    -0.05700
C1706       C  0.27363655  0.10193475  0.13953364    -0.33200
C1707       C  0.27085774  0.07308998  0.12135981     0.36100
C1708       C  0.27143693  0.04234551  0.13741608    -0.06100
C1709       C  0.27514063  0.04151669  0.17169281    -0.33100
C1710       C  0.27825192  0.07030520  0.18974275     0.36000
H1711       H  0.27289264  0.12521722  0.12670890     0.16300
O1712       O  0.26846236  0.07543315  0.08790962    -0.60600
H1713       H  0.27605227  0.01841051  0.18478914     0.16400
O1714       O  0.28310847  0.06806019  0.22296946    -0.60700
H1715       H  0.30720381  0.06938206  0.22605709     0.43400
H1716       H  0.24527843  0.08123819  0.08347971     0.43300
C1717       C  0.27608214  0.92180072  0.13691368    -0.05700
C1718       C  0.28233015  0.92224300  0.17074727    -0.33200
C1719       C  0.28645414  0.89320663  0.18825416     0.36100
C1720       C  0.28430380  0.86283982  0.17201589    -0.06100
C1721       C  0.27889429  0.86223905  0.13810981    -0.33100
C1722       C  0.27446954  0.89126885  0.12056577     0.36000
H1723       H  0.28394569  0.94518699  0.18392616     0.16300
O1724       O  0.29238087  0.89490064  0.22132685    -0.60600
H1725       H  0.27705084  0.83912237  0.12522137     0.16400
O1726       O  0.26848276  0.88923621  0.08753327    -0.60700
H1727       H  0.24435151  0.88722896  0.08548001     0.43400
H1728       H  0.31652462  0.89361229  0.22363256     0.43300
C1729       C  0.67212893  0.03615117  0.70230621    -0.05700
C1730       C  0.65577887  0.06597528  0.69636159    -0.33200
C1731       C  0.67184691  0.09630548  0.69989087     0.36100
C1732       C  0.70513814  0.09748815  0.70944282    -0.06100
C1733       C  0.72151261  0.06762428  0.71482945    -0.33100
C1734       C  0.70552549  0.03742438  0.71136280     0.36000
H1735       H  0.63025891  0.06593524  0.68904337     0.16300
O1736       O  0.65479645  0.12451667  0.69339191    -0.60600
H1737       H  0.74690341  0.06746655  0.72258089     0.16400
O1738       O  0.72268069  0.00940506  0.71833388    -0.60700
H1739       H  0.73444431  0.00399151  0.69780328     0.43400
H1740       H  0.64202875  0.12894367  0.71354071     0.43300
C1741       C  0.67228895  0.91459559  0.70065946    -0.05700
C1742       C  0.70670158  0.91514534  0.70247590    -0.33200
C1743       C  0.72479481  0.88634168  0.70693150     0.36100
C1744       C  0.70865460  0.85574127  0.70971675    -0.06100
C1745       C  0.67438637  0.85502583  0.70647090    -0.33100
C1746       C  0.65628957  0.88384647  0.70220925     0.36000
H1747       H  0.71990361  0.93814507  0.70108323     0.16300
O1748       O  0.75820186  0.88879318  0.70959811    -0.60600
H1749       H  0.66116863  0.83203539  0.70810347     0.16400
O1750       O  0.62289483  0.88140049  0.70000507    -0.60700
H1751       H  0.61526713  0.87800763  0.72283540     0.43400
H1752       H  0.76647402  0.88745047  0.68680079     0.43300
C1753       C  0.76795382  0.03747456  0.86294794    -0.05700
C1754       C  0.77975178  0.03653160  0.83063011    -0.33200
C1755       C  0.78666945  0.06528744  0.81347483     0.36100
C1756       C  0.78124494  0.09592971  0.82840638    -0.06100
C1757       C  0.77000686  0.09679723  0.86094690    -0.33100
C1758       C  0.76323904  0.06808170  0.87811232     0.36000
H1759       H  0.78393367  0.01337296  0.81845569     0.16300
O1760       O  0.79793074  0.06292545  0.78191750    -0.60600
H1761       H  0.76569109  0.11989038  0.87320464     0.16400
O1762       O  0.75184946  0.07047500  0.90961650    -0.60700
H1763       H  0.72763231  0.07090669  0.90757656     0.43400
H1764       H  0.82212081  0.06147995  0.78395538     0.43300
C1765       C  0.76296842  0.91764968  0.86204615    -0.05700
C1766       C  0.77229701  0.88949205  0.87955730    -0.33200
C1767       C  0.77883276  0.86022644  0.86333140     0.36100
C1768       C  0.77634907  0.85876119  0.82893944    -0.06100
C1769       C  0.76667826  0.88672408  0.81136583    -0.33100
C1770       C  0.75957451  0.91588952  0.82765343     0.36000
H1771       H  0.77531636  0.89020614  0.90592804     0.16300
O1772       O  0.78900370  0.83357278  0.88120835    -0.60600
H1773       H  0.76372463  0.88573791  0.78497608     0.16400
O1774       O  0.74908185  0.94233588  0.80968046    -0.60700
H1775       H  0.72483354  0.94077213  0.80968176     0.43400
H1776       H  0.76872474  0.82386830  0.89046470     0.43300
C1777       C  0.32746460  0.30590980  0.12235115    -0.05700
C1778       C  0.32574756  0.34028685  0.12122171    -0.33200
C1779       C  0.32918739  0.35749952  0.09164343     0.36100
C1780       C  0.33465637  0.34051161  0.06196416    -0.06100
C1781       C  0.33691461  0.30615985  0.06313322    -0.33100
C1782       C  0.33367570  0.28894671  0.09276919     0.36000
H1783       H  0.32093842  0.35410994  0.14330850     0.16300
O1784       O  0.32677370  0.39099994  0.09224854    -0.60600
H1785       H  0.34132297  0.29236808  0.04093868     0.16400
O1786       O  0.33629300  0.25545537  0.09222940    -0.60700
H1787       H  0.35975363  0.25087768  0.09670053     0.43400
H1788       H  0.30307384  0.39569698  0.08961536     0.43300
C1789       C  0.32624413  0.30173628  0.88167329    -0.05700
C1790       C  0.33772564  0.33429268  0.88060681    -0.33200
C1791       C  0.34303571  0.35233267  0.90943208     0.36100
C1792       C  0.33648629  0.33818583  0.94044502    -0.06100
C1793       C  0.32630617  0.30523063  0.94147773    -0.33100
C1794       C  0.32113113  0.28716664  0.91275342     0.36000
H1795       H  0.34240685  0.34609196  0.85725237     0.16300
O1796       O  0.35424408  0.38391079  0.90674781    -0.60600
H1797       H  0.32138667  0.29337985  0.96474610     0.16400
O1798       O  0.31039768  0.25541076  0.91560741    -0.60700
H1799       H  0.28615211  0.25682273  0.91604505     0.43400
H1800       H  0.37846315  0.38219847  0.90759992     0.43300
C1801       C  0.17253580  0.20777241  0.06251969    -0.05700
C1802       C  0.15581902  0.20681705  0.09264019    -0.33200
C1803       C  0.17229539  0.21236917  0.12221842     0.36100
C1804       C  0.20605926  0.21952980  0.12213290    -0.06100
C1805       C  0.22278890  0.22057411  0.09214430    -0.33100
C1806       C  0.20647889  0.21487696  0.06261013     0.36000
H1807       H  0.12986953  0.20135780  0.09347494     0.16300
O1808       O  0.15527919  0.20977942  0.15107007    -0.60600
H1809       H  0.24881629  0.22583258  0.09149038     0.16400
O1810       O  0.22435041  0.21561464  0.03418069    -0.60700
H1811       H  0.22530427  0.23904662  0.02771133     0.43400
H1812       H  0.15790235  0.18663540  0.15808787     0.43300
C1813       C  0.17022451  0.20399889  0.94233452    -0.05700
C1814       C  0.15368442  0.21773168  0.91542983    -0.33200
C1815       C  0.16993869  0.22325815  0.88571987     0.36100
C1816       C  0.20323783  0.21442316  0.88242261    -0.06100
C1817       C  0.21943719  0.20037448  0.90953320    -0.33100
C1818       C  0.20327666  0.19511129  0.93909457     0.36000
H1819       H  0.12823429  0.22485818  0.91763263     0.16300
O1820       O  0.15290974  0.23715328  0.86023558    -0.60600
H1821       H  0.24487263  0.19307895  0.90798216     0.16400
O1822       O  0.22001847  0.18079385  0.96455385    -0.60700
H1823       H  0.21570126  0.15696777  0.96243846     0.43400
H1824       H  0.15564467  0.26113410  0.86306336     0.43300
C1825       C  0.74483248  0.65004930  0.12139424    -0.05700
C1826       C  0.74343624  0.61559201  0.12179628    -0.33200
C1827       C  0.73845306  0.59768064  0.09293331     0.36100
C1828       C  0.73466741  0.61408456  0.06254684    -0.06100
C1829       C  0.73507370  0.64850967  0.06236776    -0.33100
C1830       C  0.73989611  0.66639607  0.09116635     0.36000
H1831       H  0.74692771  0.60220927  0.14450828     0.16300
O1832       O  0.73776429  0.56415325  0.09493800    -0.60600
H1833       H  0.73192027  0.66193548  0.03964079     0.16400
O1834       O  0.74045594  0.69993303  0.08906676    -0.60700
H1835       H  0.71742694  0.70682870  0.09235597     0.43400
H1836       H  0.76090958  0.55719690  0.09273995     0.43300
C1837       C  0.73530475  0.61528239  0.94122297    -0.05700
C1838       C  0.73010659  0.64932773  0.94038350    -0.33200
C1839       C  0.73331884  0.66723192  0.91111577     0.36100
C1840       C  0.74203064  0.65119635  0.88169172    -0.06100
C1841       C  0.74681368  0.61712154  0.88256230    -0.33100
C1842       C  0.74359398  0.59927154  0.91173306     0.36000
H1843       H  0.72337496  0.66225945  0.96251120     0.16300
O1844       O  0.72712180  0.70025318  0.91154785    -0.60600
H1845       H  0.75400580  0.60410870  0.86063358     0.16400
O1846       O  0.75026602  0.56636389  0.91125541    -0.60700
H1847       H  0.72995704  0.55583166  0.90296727     0.43400
H1848       H  0.74750031  0.71052717  0.91996213     0.43300
C1849       C  0.86697898  0.74068118  0.11931019    -0.05700
C1850       C  0.84953047  0.73844320  0.08978783    -0.33200
C1851       C  0.86486242  0.74398809  0.05991477     0.36100
C1852       C  0.89848149  0.75236246  0.05905787    -0.06100
C1853       C  0.91599786  0.75439494  0.08870888    -0.33100
C1854       C  0.90050029  0.74872766  0.11867530     0.36000
H1855       H  0.82371368  0.73216033  0.08974142     0.16300
O1856       O  0.84642502  0.74135937  0.03189885    -0.60600
H1857       H  0.94179499  0.76063662  0.08884022     0.16400
O1858       O  0.91821162  0.75180056  0.14711575    -0.60700
H1859       H  0.91608944  0.77514374  0.15343132     0.43400
H1860       H  0.84711154  0.71777483  0.02603601     0.43300
C1861       C  0.86101875  0.73754948  0.88262627    -0.05700
C1862       C  0.89351514  0.74813688  0.88028309    -0.33200
C1863       C  0.91131396  0.75588804  0.90834187     0.36100
C1864       C  0.89656759  0.75265644  0.93944928    -0.06100
C1865       C  0.86385074  0.74194889  0.94151318    -0.33100
C1866       C  0.84611426  0.73442344  0.91346167     0.36000
H1867       H  0.90491008  0.75144612  0.85651562     0.16300
O1868       O  0.94254201  0.76774747  0.90483917    -0.60600
H1869       H  0.85176804  0.73914300  0.96493177     0.16400
O1870       O  0.81419492  0.72424912  0.91649171    -0.60700
H1871       H  0.81500147  0.70001430  0.91553192     0.43400
H1872       H  0.95565675  0.74894894  0.89681247     0.43300
C1873       C  0.49755491  0.97815647  0.69768146    -0.05700
C1874       C  0.51395967  0.94811333  0.69437634    -0.33200
C1875       C  0.54824156  0.94655444  0.69372737     0.36100
C1876       C  0.56719999  0.97550137  0.69623029    -0.06100
C1877       C  0.55071906  0.00555202  0.69904342    -0.33100
C1878       C  0.51651408  0.00711735  0.69964616     0.36000
H1879       H  0.50024225  0.92544770  0.69243018     0.16300
O1880       O  0.56270955  0.91651217  0.69028127    -0.60600
H1881       H  0.56433242  0.02826416  0.70107423     0.16400
O1882       O  0.50213734  0.03722822  0.70296817    -0.60700
H1883       H  0.50022365  0.04599277  0.68033384     0.43400
H1884       H  0.56078620  0.90590351  0.71209235     0.43300
C1885       C  0.39406932  0.04016235  0.70349643    -0.05700
C1886       C  0.36131776  0.04257927  0.69312054    -0.33200
C1887       C  0.34414470  0.07221675  0.69559384     0.36100
C1888       C  0.35958763  0.10023664  0.70892755    -0.06100
C1889       C  0.39265743  0.09803930  0.71816266    -0.33100
C1890       C  0.40972775  0.06848597  0.71586216     0.36000
H1891       H  0.34886742  0.02136062  0.68312930     0.16300
O1892       O  0.31216808  0.07327295  0.68527837    -0.60600
H1893       H  0.40511842  0.11899131  0.72869882     0.16400
O1894       O  0.44137188  0.06743820  0.72712799    -0.60700
H1895       H  0.43966148  0.06098349  0.75050705     0.43400
H1896       H  0.31310751  0.08117087  0.66228069     0.43300
C1897       C  0.39244420  0.91822693  0.70500765    -0.05700
C1898       C  0.41021820  0.88873538  0.70689817    -0.33200
C1899       C  0.39444067  0.85831485  0.70996316     0.36100
C1900       C  0.35987271  0.85651857  0.71129859    -0.06100
C1901       C  0.34207737  0.88597444  0.70876174    -0.33100
C1902       C  0.35788910  0.91642470  0.70589312     0.36000
H1903       H  0.43673911  0.88905690  0.70644802     0.16300
O1904       O  0.41333744  0.83070694  0.71281516    -0.60600
H1905       H  0.31556755  0.88566189  0.70962541     0.16400
O1906       O  0.33908011  0.94415736  0.70394948    -0.60700
H1907       H  0.33462346  0.95034219  0.72700454     0.43400
H1908       H  0.41890547  0.82452799  0.69001174     0.43300
C1909       C  0.25761857  0.97678823  0.96504653    -0.05700
C1910       C  0.25024958  0.00626741  0.98111748    -0.33200
C1911       C  0.25110556  0.00828769  0.01519566     0.36100
C1912       C  0.25987547  0.98059623  0.03389079    -0.06100
C1913       C  0.26633841  0.95090991  0.01778139    -0.33100
C1914       C  0.26507865  0.94875153  0.98381272     0.36000
H1915       H  0.24394167  0.02806036  0.96728555     0.16300
O1916       O  0.24367423  0.03756075  0.02973161    -0.60600
H1917       H  0.27314162  0.92914896  0.03140288     0.16400
O1918       O  0.27272807  0.91943817  0.96938764    -0.60700
H1919       H  0.25202377  0.90668429  0.96938108     0.43400
H1920       H  0.21966887  0.03686504  0.03336390     0.43300
C1921       C  0.26569200  0.03645763  0.86139012    -0.05700
C1922       C  0.27633128  0.03615994  0.82866777    -0.33200
C1923       C  0.28102146  0.06532546  0.81153603     0.36100
C1924       C  0.27538737  0.09540517  0.82726830    -0.06100
C1925       C  0.26479515  0.09587796  0.85982835    -0.33100
C1926       C  0.25954652  0.06676325  0.87683333     0.36000
H1927       H  0.28153532  0.01332510  0.81629966     0.16300
O1928       O  0.29245006  0.06421925  0.77993493    -0.60600
H1929       H  0.25976095  0.11893230  0.87192337     0.16400
O1930       O  0.24839051  0.06842930  0.90846533    -0.60700
H1931       H  0.22418512  0.06700678  0.90671499     0.43400
H1932       H  0.27292379  0.05967425  0.76615783     0.43300
C1933       C  0.26728598  0.91623743  0.86190216    -0.05700
C1934       C  0.26184191  0.88668076  0.87893290    -0.33200
C1935       C  0.26594081  0.85657442  0.86345268     0.36100
C1936       C  0.27582330  0.85572616  0.83052225    -0.06100
C1937       C  0.28126817  0.88506666  0.81345388    -0.33100
C1938       C  0.27714904  0.91514650  0.82877353     0.36000
H1939       H  0.25402565  0.88676005  0.90428351     0.16300
O1940       O  0.25944107  0.82824931  0.88046123    -0.60600
H1941       H  0.28887911  0.88471501  0.78800878     0.16400
O1942       O  0.28268122  0.94314651  0.81091671    -0.60700
H1943       H  0.30667220  0.94680504  0.81197486     0.43400
H1944       H  0.23579151  0.82392235  0.87687953     0.43300
C1945       C  0.57435862  0.97977028  0.30850951    -0.05700
C1946       C  0.55608791  0.95198430  0.31753566    -0.33200
C1947       C  0.52172210  0.95265107  0.31849233     0.36100
C1948       C  0.50438235  0.98146832  0.30989836    -0.06100
C1949       C  0.52265686  0.00932241  0.30088914    -0.33100
C1950       C  0.55708143  0.00866361  0.29999076     0.36000
H1951       H  0.56848002  0.92953461  0.32437736     0.16300
O1952       O  0.50548279  0.92480500  0.32810280    -0.60600
H1953       H  0.51024540  0.03172900  0.29394150     0.16400
O1954       O  0.57341281  0.03647836  0.29039127    -0.60700
H1955       H  0.57633562  0.03423189  0.26638293     0.43400
H1956       H  0.50280077  0.92695138  0.35216836     0.43300
C1957       C  0.68112615  0.03698555  0.30513434    -0.05700
C1958       C  0.66525416  0.06693224  0.31139244    -0.33200
C1959       C  0.68100952  0.09709240  0.30609484     0.36100
C1960       C  0.71332492  0.09803998  0.29385157    -0.06100
C1961       C  0.72973077  0.06808967  0.28919381    -0.33100
C1962       C  0.71408992  0.03796662  0.29470352     0.36000
H1963       H  0.64019685  0.06711711  0.32005304     0.16300
O1964       O  0.66423111  0.12540952  0.31252912    -0.60600
H1965       H  0.75468293  0.06779256  0.28023255     0.16400
O1966       O  0.73124153  0.00974220  0.28894297    -0.60700
H1967       H  0.72772112  0.00488703  0.26539039     0.43400
H1968       H  0.67023034  0.13122811  0.33535779     0.43300
C1969       C  0.67776367  0.91513711  0.30429438    -0.05700
C1970       C  0.66020834  0.88670562  0.29557754    -0.33200
C1971       C  0.67619539  0.85674499  0.28989456     0.36100
C1972       C  0.71063702  0.85437342  0.29306196    -0.06100
C1973       C  0.72798111  0.88243333  0.30308326    -0.33100
C1974       C  0.71203576  0.91235328  0.30876749     0.36000
H1975       H  0.63391898  0.88777934  0.29216698     0.16300
O1976       O  0.65779406  0.83020203  0.28052793    -0.60600
H1977       H  0.75429162  0.88140057  0.30635240     0.16400
O1978       O  0.73029632  0.93851381  0.31938721    -0.60700
H1979       H  0.74345562  0.94546828  0.30018106     0.43400
H1980       H  0.65575333  0.83206872  0.25635927     0.43300
C1981       C  0.75255164  0.97702167  0.96604768    -0.05700
C1982       C  0.74984671  0.00683396  0.98300293    -0.33200
C1983       C  0.75149160  0.00780119  0.01720072     0.36100
C1984       C  0.75586560  0.97848845  0.03518399    -0.06100
C1985       C  0.75696461  0.94864460  0.01825081    -0.33100
C1986       C  0.75524300  0.94766545  0.98420269     0.36000
H1987       H  0.74707647  0.02972385  0.96978214     0.16300
O1988       O  0.74873411  0.03752300  0.03257117    -0.60600
H1989       H  0.76001419  0.92569671  0.03129632     0.16400
O1990       O  0.75774832  0.91782055  0.96910281    -0.60700
H1991       H  0.73507491  0.90899551  0.96850286     0.43400
H1992       H  0.77072621  0.04782055  0.03081294     0.43300
C1993       C  0.77452129  0.03767204  0.13807205    -0.05700
C1994       C  0.78198929  0.06613261  0.12007525    -0.33200
C1995       C  0.78679788  0.09600506  0.13582040     0.36100
C1996       C  0.78408525  0.09777827  0.17014632    -0.06100
C1997       C  0.77681615  0.06938945  0.18818402    -0.33100
C1998       C  0.77178404  0.03957756  0.17246724     0.36000
H1999       H  0.78448094  0.06527585  0.09366508     0.16300
O2000       O  0.79420823  0.12320985  0.11740768    -0.60600
H2001       H  0.77402944  0.07044438  0.21457885     0.16400
O2002       O  0.76364552  0.01272939  0.19103632    -0.60700
H2003       H  0.73937477  0.01259501  0.19178205     0.43400
H2004       H  0.81846201  0.12456670  0.11748816     0.43300
C2005       C  0.77636799  0.91745145  0.13688596    -0.05700
C2006       C  0.78784432  0.89020203  0.11932089    -0.33200
C2007       C  0.79283761  0.86013800  0.13506527     0.36100
C2008       C  0.78680995  0.85732118  0.16890244    -0.06100
C2009       C  0.77554675  0.88450328  0.18637583    -0.33100
C2010       C  0.77011256  0.91431082  0.17068329     0.36000
H2011       H  0.79309243  0.89220418  0.09336546     0.16300
O2012       O  0.80446749  0.83405036  0.11746641    -0.60600
H2013       H  0.76981295  0.88238086  0.21223542     0.16400
O2014       O  0.75682226  0.93958315  0.18824280    -0.60700
H2015       H  0.77463053  0.94729382  0.20296259     0.43400
H2016       H  0.78493200  0.82431623  0.10673074     0.43300
C2017       C  0.72101591  0.44066692  0.99746604    -0.05700
C2018       C  0.71794751  0.45713826  0.02750427    -0.33200
C2019       C  0.71897154  0.49136090  0.02920679     0.36100
C2020       C  0.72315501  0.51027804  0.00045488    -0.06100
C2021       C  0.72540404  0.49384516  0.97028900    -0.33100
C2022       C  0.72463104  0.45960727  0.96861447     0.36000
H2023       H  0.71503153  0.44347920  0.05011865     0.16300
O2024       O  0.71649080  0.50580108  0.05936796    -0.60600
H2025       H  0.72854899  0.50746881  0.94769168     0.16400
O2026       O  0.72808266  0.44517950  0.93855190    -0.60700
H2027       H  0.75199050  0.44275742  0.93546026     0.43400
H2028       H  0.69266688  0.50805074  0.06333417     0.43300
C2029       C  0.73147572  0.33647640  0.05827645    -0.05700
C2030       C  0.73945164  0.35442247  0.08665957    -0.33200
C2031       C  0.74538268  0.33880149  0.11679521     0.36100
C2032       C  0.74317424  0.30434280  0.11943214    -0.06100
C2033       C  0.73491269  0.28643423  0.09108612    -0.33100
C2034       C  0.72911640  0.30204234  0.06093950     0.36000
H2035       H  0.74188580  0.38083337  0.08549941     0.16300
O2036       O  0.75487822  0.35751258  0.14302597    -0.60600
H2037       H  0.73308261  0.25996810  0.09207623     0.16400
O2038       O  0.72160033  0.28313307  0.03422434    -0.60700
H2039       H  0.69738091  0.28126352  0.03426321     0.43400
H2040       H  0.73421310  0.36521013  0.15309659     0.43300
C2041       C  0.72598651  0.33598686  0.93651618    -0.05700
C2042       C  0.72754248  0.30158231  0.93659565    -0.33200
C2043       C  0.73251850  0.28401373  0.90758668     0.36100
C2044       C  0.73670334  0.30076950  0.87740181    -0.06100
C2045       C  0.73360377  0.33499317  0.87711087    -0.33100
C2046       C  0.72804419  0.35248483  0.90599984     0.36000
H2047       H  0.72541850  0.28802243  0.95936041     0.16300
O2048       O  0.73409512  0.25048806  0.90942783    -0.60600
H2049       H  0.73622539  0.34861242  0.85442947     0.16400
O2050       O  0.72598505  0.38590261  0.90393785    -0.60700
H2051       H  0.70281392  0.39047649  0.89835962     0.43400
H2052       H  0.71121311  0.24282291  0.90635432     0.43300
C2053       C  0.06910195  0.18361158  0.00383107    -0.05700
C2054       C  0.05260983  0.17966716  0.97378614    -0.33200
C2055       C  0.01848175  0.18021591  0.97209636     0.36100
C2056       C  0.99996773  0.18519592  0.00076429    -0.06100
C2057       C  0.01633457  0.18561263  0.03116058    -0.33100
C2058       C  0.05049606  0.18481767  0.03290618     0.36000
H2059       H  0.06613842  0.17739765  0.95110326     0.16300
O2060       O  0.00378648  0.17727296  0.94201900    -0.60600
H2061       H  0.00282505  0.18808169  0.05381862     0.16400
O2062       O  0.06521986  0.18604548  0.06313945    -0.60700
H2063       H  0.06506972  0.20953591  0.06938903     0.43400
H2064       H  0.99819677  0.15368798  0.93999984     0.43300
C2065       C  0.86343387  0.22315218  0.11740509    -0.05700
C2066       C  0.89648134  0.21416820  0.11857195    -0.33200
C2067       C  0.91412675  0.20903986  0.08981845     0.36100
C2068       C  0.89866306  0.21288892  0.05898679    -0.06100
C2069       C  0.86570643  0.22282260  0.05798525    -0.33100
C2070       C  0.84809161  0.22783117  0.08680752     0.36000
H2071       H  0.90855123  0.21021765  0.14193854     0.16300
O2072       O  0.94619928  0.19947052  0.09240576    -0.60600
H2073       H  0.85327299  0.22657308  0.03479759     0.16400
O2074       O  0.81620278  0.23825002  0.08479641    -0.60700
H2075       H  0.80316143  0.21832003  0.07990702     0.43400
H2076       H  0.95884760  0.22006860  0.09505495     0.43300
C2077       C  0.89908465  0.21235389  0.93856172    -0.05700
C2078       C  0.86493636  0.21674157  0.93918886    -0.33200
C2079       C  0.84707355  0.22114384  0.91035047     0.36100
C2080       C  0.86314581  0.22092651  0.87978576    -0.06100
C2081       C  0.89738122  0.21786921  0.87908055    -0.33100
C2082       C  0.91532620  0.21338908  0.90803052     0.36000
H2083       H  0.85169870  0.21647850  0.96216841     0.16300
O2084       O  0.81382932  0.22550386  0.91248551    -0.60600
H2085       H  0.91032553  0.21805157  0.85592162     0.16400
O2086       O  0.94870198  0.21046358  0.90604908    -0.60700
H2087       H  0.95259428  0.18770466  0.89857961     0.43400
H2088       H  0.81051617  0.24955296  0.91153480     0.43300
C2089       C  0.34816864  0.51397707  0.00359349    -0.05700
C2090       C  0.33972551  0.49770867  0.97434710    -0.33200
C2091       C  0.33861259  0.46343383  0.97254277     0.36100
C2092       C  0.34569124  0.44420752  0.00043884    -0.06100
C2093       C  0.35476664  0.46038382  0.02957467    -0.33100
C2094       C  0.35617292  0.49473825  0.03130045     0.36000
H2095       H  0.33337262  0.51157063  0.95257544     0.16300
O2096       O  0.32926268  0.44919287  0.94359898    -0.60600
H2097       H  0.36093528  0.44637007  0.05131398     0.16400
O2098       O  0.36625572  0.50903584  0.05998234    -0.60700
H2099       H  0.34656714  0.50938330  0.07415122     0.43400
H2100       H  0.34937130  0.44880124  0.93000405     0.43300
C2101       C  0.34363321  0.61982675  0.06462831    -0.05700
C2102       C  0.33393027  0.65285124  0.06360197    -0.33200
C2103       C  0.32950845  0.67106672  0.09226673     0.36100
C2104       C  0.33358770  0.65629639  0.12342088    -0.06100
C2105       C  0.34471076  0.62365621  0.12454176    -0.33100
C2106       C  0.35023571  0.60570714  0.09565589     0.36000
H2107       H  0.32915500  0.66482204  0.04036073     0.16300
O2108       O  0.32017200  0.70314781  0.08924376    -0.60600
H2109       H  0.34907339  0.61181295  0.14794024     0.16400
O2110       O  0.36182084  0.57431875  0.09826105    -0.60700
H2111       H  0.38601418  0.57648405  0.09775102     0.43400
H2112       H  0.34090183  0.71577432  0.08764855     0.43300
C2113       C  0.32980634  0.65066987  0.88131491    -0.05700
C2114       C  0.33147204  0.66854370  0.91078918    -0.33200
C2115       C  0.33597109  0.65297343  0.94119411     0.36100
C2116       C  0.33922445  0.61853659  0.94302515    -0.06100
C2117       C  0.33843949  0.60071824  0.91348916    -0.33100
C2118       C  0.33403812  0.61632695  0.88305131     0.36000
H2119       H  0.32868544  0.69492798  0.91056669     0.16300
O2120       O  0.33723117  0.67193146  0.96886622    -0.60600
H2121       H  0.34103263  0.57431596  0.91380795     0.16400
O2122       O  0.33324634  0.59744392  0.85532260    -0.60700
H2123       H  0.35623614  0.59671013  0.84758487     0.43400
H2124       H  0.31403901  0.67644194  0.97451132     0.43300
C2125       C  0.06934565  0.76642596  0.00104931    -0.05700
C2126       C  0.05282819  0.76177063  0.97121351    -0.33200
C2127       C  0.01887687  0.76386518  0.96935653     0.36100
C2128       C  0.00047713  0.77002395  0.99791186    -0.06100
C2129       C  0.01708207  0.77655715  0.02735578    -0.33100
C2130       C  0.05119404  0.77485926  0.02911064     0.36000
H2131       H  0.06611624  0.75566046  0.94911045     0.16300
O2132       O  0.00413069  0.75830417  0.93969838    -0.60600
H2133       H  0.00361998  0.78238216  0.04942956     0.16400
O2134       O  0.06645289  0.78208222  0.05819096    -0.60700
H2135       H  0.06120739  0.76350871  0.07307135     0.43400
H2136       H  0.00513587  0.77966235  0.92799561     0.43300
C2137       C  0.20837701  0.73845762  0.12115757    -0.05700
C2138       C  0.17418666  0.74194593  0.12231440    -0.33200
C2139       C  0.15582163  0.74548450  0.09352675     0.36100
C2140       C  0.17172989  0.74637361  0.06279355    -0.06100
C2141       C  0.20581043  0.74198945  0.06180443    -0.33100
C2142       C  0.22393062  0.73760969  0.09041984     0.36000
H2143       H  0.16156374  0.74230512  0.14564501     0.16300
O2144       O  0.12248423  0.74836002  0.09597649    -0.60600
H2145       H  0.21880168  0.74171013  0.03868887     0.16400
O2146       O  0.25682374  0.73178170  0.08787074    -0.60700
H2147       H  0.25839752  0.70810415  0.08268414     0.43400
H2148       H  0.11408755  0.72554277  0.09628969     0.43300
C2149       C  0.17250252  0.75126937  0.94261893    -0.05700
C2150       C  0.15607138  0.73854656  0.91523457    -0.33200
C2151       C  0.17261171  0.73303683  0.88585679     0.36100
C2152       C  0.20631618  0.74052141  0.88333650    -0.06100
C2153       C  0.22240840  0.75427065  0.91065901    -0.33100
C2154       C  0.20577440  0.75979905  0.93996288     0.36000
H2155       H  0.13036586  0.73206622  0.91676713     0.16300
O2156       O  0.15536876  0.72053375  0.85984439    -0.60600
H2157       H  0.24807480  0.76093079  0.90947309     0.16400
O2158       O  0.22225561  0.77380747  0.96572132    -0.60700
H2159       H  0.21826944  0.79767667  0.96354544     0.43400
H2160       H  0.15619369  0.69640458  0.86270349     0.43300
loop_ 
_geom_bond_atom_site_label_1 
_geom_bond_atom_site_label_2 
_geom_bond_distance 
_geom_bond_site_symmetry_2 
_ccdc_geom_bond_type 
C1            N2   1.354   1_556  A
C1            N6   1.352       .  A
C1         C2149   1.472       .  S
N2            C3   1.358       .  A
C3            N4   1.358       .  A
C3         C2140   1.483       .  S
N4            C5   1.358       .  A
C5            N6   1.355   1_554  A
C5         C2125   1.476       .  S
C7            N8   1.365       .  A
C7           N12   1.363       .  A
C7         C2101   1.500       .  S
N8            C9   1.365       .  A
C9           N10   1.361   1_554  A
C9         C2089   1.497       .  S
N10          C11   1.358       .  A
C11          N12   1.360   1_556  A
C11        C2116   1.501       .  S
C13          N14   1.353       .  A
C13          N18   1.355   1_554  A
C13        C2068   1.482       .  S
N14          C15   1.355   1_554  A
C15          N16   1.360       .  A
C15        C2056   1.484   1_556  S
N16          C17   1.359       .  A
C17          N18   1.357       .  A
C17        C2077   1.485       .  S
C19          N20   1.359       .  A
C19          N24   1.363       .  A
C19        C2041   1.496       .  S
N20          C21   1.358       .  A
C21          N22   1.359   1_556  A
C21        C2017   1.492       .  S
N22          C23   1.359       .  A
C23          N24   1.362   1_554  A
C23        C2029   1.497       .  S
C25          N26   1.354       .  A
C25          N30   1.355       .  A
C25        C2005   1.472       .  S
N26          C27   1.357       .  A
C27          N28   1.354   1_565  A
C27        C1984   1.479       .  S
N28          C29   1.355       .  A
C29          N30   1.355   1_545  A
C29        C1993   1.473       .  S
C31          N32   1.361   1_545  A
C31          N36   1.359       .  A
C31        C1957   1.497       .  S
N32          C33   1.363       .  A
C33          N34   1.366       .  A
C33        C1969   1.504       .  S
N34          C35   1.366       .  A
C35          N36   1.359   1_565  A
C35        C1945   1.499       .  S
C37          N38   1.351       .  A
C37          N42   1.354   1_545  A
C37        C1921   1.471       .  S
N38          C39   1.352   1_545  A
C39          N40   1.353       .  A
C39        C1909   1.471       .  S
N40          C41   1.354       .  A
C41          N42   1.354       .  A
C41        C1933   1.474       .  S
C43          N44   1.361       .  A
C43          N48   1.363       .  A
C43        C1897   1.498       .  S
N44          C45   1.359       .  A
C45          N46   1.356   1_565  A
C45        C1873   1.492       .  S
N46          C47   1.357       .  A
C47          N48   1.363   1_545  A
C47        C1885   1.489       .  S
C49          N50   1.356       .  A
C49          N54   1.350   1_554  A
C49        C1852   1.478       .  S
N50          C51   1.358   1_554  A
C51          N52   1.355       .  A
C51        C2128   1.476   1_655  S
N52          C53   1.353       .  A
C53          N54   1.351       .  A
C53        C1864   1.473       .  S
C55          N56   1.360       .  A
C55          N60   1.362       .  A
C55        C1828   1.493       .  S
N56          C57   1.359       .  A
C57          N58   1.358   1_554  A
C57        C2020   1.492       .  S
N58          C59   1.358       .  A
C59          N60   1.360   1_556  A
C59        C1837   1.492       .  S
C61          N62   1.353       .  A
C61          N66   1.353   1_556  A
C61        C1813   1.471       .  S
N62          C63   1.358   1_556  A
C63          N64   1.360       .  A
C63        C2053   1.484       .  S
N64          C65   1.359       .  A
C65          N66   1.354       .  A
C65        C1801   1.486       .  S
C67          N68   1.364       .  A
C67          N72   1.363   1_556  A
C67        C1792   1.500       .  S
N68          C69   1.364   1_556  A
C69          N70   1.358       .  A
C69        C2092   1.495       .  S
N70          C71   1.357       .  A
C71          N72   1.361       .  A
C71        C1780   1.495       .  S
C73          N74   1.353       .  A
C73          N78   1.355       .  A
C73        C1765   1.475       .  S
N74          C75   1.355   1_565  A
C75          N76   1.355       .  A
C75        C1753   1.475       .  S
N76          C77   1.355   1_545  A
C77          N78   1.356       .  A
C77        C1981   1.480       .  S
C79          N80   1.361   1_545  A
C79          N84   1.359       .  A
C79        C1729   1.498       .  S
N80          C81   1.361       .  A
C81          N82   1.360       .  A
C81        C1741   1.496       .  S
N82          C83   1.360       .  A
C83          N84   1.362   1_565  A
C83        C1876   1.494       .  S
C85          N86   1.359   1_545  A
C85          N90   1.358       .  A
C85        C1708   1.484       .  S
N86          C87   1.356       .  A
C87          N88   1.348       .  A
C87        C1717   1.478       .  S
N88          C89   1.351       .  A
C89          N90   1.357   1_565  A
C89        C1912   1.474       .  S
C91          N92   1.360       .  A
C91          N96   1.361       .  A
C91        C1693   1.499       .  S
N92          C93   1.359       .  A
C93          N94   1.365   1_565  A
C93        C1948   1.501       .  S
N94          C95   1.366       .  A
C95          N96   1.363   1_545  A
C95        C1684   1.503       .  S
C97          N98   1.354       .  A
C97         N102   1.352       .  A
C97        C1672   1.473   1_455  S
N98          C99   1.355       .  A
C99         N100   1.355       .  A
C99        C1657   1.467       .  S
N100        C101   1.353       .  A
C101        N102   1.355       .  A
C101       C1645   1.474       .  S
C103        N104   1.360       .  A
C103        N108   1.358       .  A
C103       C1633   1.493   1_455  S
N104        C105   1.361       .  A
C105        N106   1.361       .  A
C105       C1621   1.496       .  S
N106        C107   1.361       .  A
C107        N108   1.358       .  A
C107       C1609   1.494       .  S
C109        N110   1.359       .  A
C109        N114   1.358       .  A
C109       C1585   1.483       .  S
N110        C111   1.357       .  A
C111        N112   1.351       .  A
C111       C1597   1.480   1_455  S
N112        C113   1.351       .  A
C113        N114   1.357       .  A
C113       C1648   1.476       .  S
C115        N116   1.364       .  A
C115        N120   1.362       .  A
C115       C1573   1.499   1_455  S
N116        C117   1.362       .  A
C117        N118   1.359       .  A
C117       C1549   1.499       .  S
N118        C119   1.358       .  A
C119        N120   1.360       .  A
C119       C1561   1.494       .  S
C121        N122   1.358       .  A
C121        N126   1.351       .  A
C121       C1537   1.482       .  S
N122        C123   1.360       .  A
C123        N124   1.359       .  A
C123       C1528   1.484   1_455  S
N124        C125   1.356       .  A
C125        N126   1.352       .  A
C125       C1513   1.476       .  S
C127        N128   1.362       .  A
C127        N132   1.363       .  A
C127       C1501   1.500       .  S
N128        C129   1.362       .  A
C129        N130   1.362       .  A
C129       C1552   1.502       .  S
N130        C131   1.362       .  A
C131        N132   1.363       .  A
C131       C1489   1.498   1_455  S
C133        N134   1.357       .  A
C133        N138   1.357       .  A
C133       C1477   1.478   1_455  S
N134        C135   1.355       .  A
C135        N136   1.354       .  A
C135       C1516   1.473       .  S
N136        C137   1.351       .  A
C137        N138   1.354       .  A
C137       C1468   1.478       .  S
C139        N140   1.359       .  A
C139        N144   1.359       .  A
C139       C1444   1.495       .  S
N140        C141   1.360       .  A
C141        N142   1.363       .  A
C141       C1612   1.496       .  S
N142        C143   1.362       .  A
C143        N144   1.361       .  A
C143       C1456   1.498   1_455  S
C145        N146   1.358       .  A
C145        N150   1.356       .  A
C145       C1417   1.486       .  S
N146        C147   1.359       .  A
C147        N148   1.358       .  A
C147       C1408   1.485       .  S
N148        C149   1.355       .  A
C149        N150   1.355       .  A
C149       C1429   1.482       .  S
C151        N152   1.359       .  A
C151        N156   1.359       .  A
C151       C1396   1.494       .  S
N152        C153   1.362       .  A
C153        N154   1.361       .  A
C153       C1384   1.495       .  S
N154        C155   1.361       .  A
C155        N156   1.359       .  A
C155       C1369   1.493       .  S
O157       Zr193   2.433       .  S
O157        C168   1.292       .  A
O158       Zr192   2.453       .  S
O158        C169   1.295       .  A
O159       Zr165   2.448       .  S
O159        C170   1.295       .  A
O160       Zr165   2.422       .  S
O160        C171   1.289       .  A
O161       Zr195   2.436       .  S
O161        C171   1.293       .  A
O162       Zr194   2.430       .  S
O162        C170   1.290       .  A
O163       Zr165   2.447       .  S
O163        C169   1.293       .  A
O164       Zr165   2.430       .  S
O164        C168   1.291       .  A
Zr165       O166   2.341       .  S
Zr165       O167   2.344       .  S
Zr165       O175   2.347       .  S
Zr165       O173   2.326       .  S
O166       Zr192   2.323       .  S
O166       Zr195   2.340       .  S
O167       Zr193   2.340       .  S
O167       Zr194   2.329       .  S
C168       C2137   1.478       .  S
C169       C1504   1.499       .  S
C170       C1381   1.493       .  S
C171       C1540   1.470       .  S
H172        O173   0.966       .  S
O173       Zr192   2.330       .  S
O173       Zr194   2.347       .  S
H174        O175   0.965       .  S
O175       Zr193   2.349       .  S
O175       Zr195   2.350       .  S
O176       Zr192   2.402       .  S
O176        C199   1.287       .  A
O177       Zr193   2.450       .  S
O177        C200   1.294       .  A
O178       Zr194   2.419       .  S
O178        C201   1.289       .  A
O179       Zr195   2.463       .  S
O179        C202   1.297       .  A
O180       Zr195   2.420       .  S
O180        C203   1.289       .  A
O181       Zr194   2.456       .  S
O181        C204   1.295       .  A
O182       Zr196   2.412       .  S
O182        C205   1.289       .  A
O183       Zr196   2.456       .  S
O183        C206   1.295       .  A
O184       Zr194   2.427       .  S
O184        C205   1.290       .  A
O185       Zr195   2.445       .  S
O185        C206   1.294       .  A
O186       Zr192   2.440       .  S
O186        C201   1.293       .  A
O187       Zr193   2.443       .  S
O187        C204   1.293       .  A
O188       Zr193   2.426       .  S
O188        C203   1.291       .  A
O189       Zr192   2.432       .  S
O189        C202   1.291       .  A
O190       Zr196   2.445       .  S
O190        C199   1.293       .  A
O191       Zr196   2.450       .  S
O191        C200   1.295       .  A
Zr192       O198   2.335       .  S
Zr192       O210   2.348       .  S
Zr193       O197   2.343       .  S
Zr193       O208   2.332       .  S
Zr194       O198   2.337       .  S
Zr194       O208   2.338       .  S
Zr195       O197   2.344       .  S
Zr195       O210   2.329       .  S
Zr196       O197   2.327       .  S
Zr196       O198   2.340       .  S
Zr196       O210   2.335       .  S
Zr196       O208   2.350       .  S
C199       C1345   1.481       .  S
C200       C1333   1.500       .  S
C201       C1420   1.474       .  S
C202       C1357   1.494       .  S
C203       C1720   1.470       .  S
C204       C2104   1.501       .  S
C205       C1321   1.471       .  S
C206       C1696   1.501       .  S
H207        O208   0.964       .  S
H209        O210   0.964       .  S
C211        N212   1.354       .  A
C211        N216   1.350       .  A
C211       C1309   1.477       .  S
N212        C213   1.358       .  A
C213        N214   1.357       .  A
C213       C1300   1.479       .  S
N214        C215   1.356       .  A
C215        N216   1.352       .  A
C215       C1285   1.471       .  S
C217        N218   1.363       .  A
C217        N222   1.364       .  A
C217       C1276   1.502       .  S
N218        C219   1.362       .  A
C219        N220   1.358       .  A
C219       C1261   1.490       .  S
N220        C221   1.356       .  A
C221        N222   1.364       .  A
C221       C1249   1.494       .  S
O223       Zr259   2.400       .  S
O223        C234   1.286       .  A
O224       Zr258   2.447       .  S
O224        C235   1.294       .  A
O225       Zr231   2.459       .  S
O225        C236   1.297       .  A
O226       Zr231   2.421       .  S
O226        C237   1.291       .  A
O227       Zr261   2.444       .  S
O227        C237   1.293       .  A
O228       Zr260   2.444       .  S
O228        C236   1.293       .  A
O229       Zr231   2.446       .  S
O229        C235   1.294       .  A
O230       Zr231   2.432       .  S
O230        C234   1.292       .  A
Zr231       O232   2.344       .  S
Zr231       O233   2.339       .  S
Zr231       O241   2.350       .  S
Zr231       O239   2.327       .  S
O232       Zr258   2.331       .  S
O232       Zr261   2.337       .  S
O233       Zr259   2.342       .  S
O233       Zr260   2.327       .  S
C234       C1924   1.458       .  S
C235       C1789   1.498       .  S
C236       C1213   1.502       .  S
C237       C1816   1.486       .  S
H238        O239   0.964       .  S
O239       Zr258   2.334       .  S
O239       Zr260   2.340       .  S
H240        O241   0.965       .  S
O241       Zr259   2.345       .  S
O241       Zr261   2.346       .  S
O242       Zr258   2.417       .  S
O242        C265   1.290       .  A
O243       Zr259   2.437       .  S
O243        C266   1.292       .  A
O244       Zr260   2.426       .  S
O244        C267   1.291       .  A
O245       Zr261   2.447       .  S
O245        C268   1.294       .  A
O246       Zr261   2.412       .  S
O246        C269   1.287       .  A
O247       Zr260   2.449       .  S
O247        C270   1.295       .  A
O248       Zr262   2.416       .  S
O248        C271   1.289       .  A
O249       Zr262   2.449       .  S
O249        C272   1.294       .  A
O250       Zr260   2.434       .  S
O250        C271   1.292       .  A
O251       Zr261   2.438       .  S
O251        C272   1.293       .  A
O252       Zr258   2.436       .  S
O252        C267   1.292       .  A
O253       Zr259   2.434       .  S
O253        C270   1.291       .  A
O254       Zr259   2.427       .  S
O254        C269   1.291       .  A
O255       Zr258   2.438       .  S
O255        C268   1.292       .  A
O256       Zr262   2.430       .  S
O256        C265   1.291       .  A
O257       Zr262   2.445       .  S
O257        C266   1.293       .  A
Zr258       O264   2.336       .  S
Zr258       O276   2.346       .  S
Zr259       O263   2.323       .  S
Zr259       O274   2.325       .  S
Zr260       O264   2.339       .  S
Zr260       O274   2.344       .  S
Zr261       O263   2.337       .  S
Zr261       O276   2.336       .  S
Zr262       O263   2.317       .  S
Zr262       O264   2.340       .  S
Zr262       O276   2.343       .  S
Zr262       O274   2.345       .  S
C265       C1228   1.481       .  S
C266       C1264   1.490       .  S
C267       C1204   1.469       .  S
C268       C1237   1.496       .  S
C269       C1660   1.476       .  S
C270       C1888   1.489       .  S
C271       C1297   1.466       .  S
C272       C1624   1.496       .  S
H273        O274   0.964       .  S
H275        O276   0.964       .  S
C277        N278   1.355       .  A
C277        N282   1.355       .  A
C277       C1348   1.474       .  S
N278        C279   1.357       .  A
C279        N280   1.358       .  A
C279       C1177   1.481       .  S
N280        C281   1.357       .  A
C281        N282   1.354       .  A
C281       C1189   1.480       .  S
C283        N284   1.364       .  A
C283        N288   1.365       .  A
C283       C1168   1.503       .  S
N284        C285   1.362       .  A
C285        N286   1.357       .  A
C285       C1360   1.495       .  S
N286        C287   1.359       .  A
C287        N288   1.364       .  A
C287       C1252   1.495       .  S
C289        N290   1.353       .  A
C289        N294   1.358       .  A
C289       C1153   1.482       .  S
N290        C291   1.351       .  A
C291        N292   1.353       .  A
C291       C1225   1.469       .  S
N292        C293   1.357       .  A
C293        N294   1.361       .  A
C293       C1405   1.481       .  S
C295        N296   1.362       .  A
C295        N300   1.360       .  A
C295       C1240   1.498       .  S
N296        C297   1.361       .  A
C297        N298   1.359       .  A
C297       C1141   1.496       .  S
N298        C299   1.360       .  A
C299        N300   1.362       .  A
C299       C1129   1.492       .  S
O301       Zr337   2.414       .  S
O301        C312   1.289       .  A
O302       Zr336   2.457       .  S
O302        C313   1.297       .  A
O303       Zr309   2.434       .  S
O303        C314   1.292       .  A
O304       Zr309   2.460       .  S
O304        C315   1.297       .  A
O305       Zr339   2.444       .  S
O305        C315   1.293       .  A
O306       Zr338   2.432       .  S
O306        C314   1.292       .  A
O307       Zr309   2.426       .  S
O307        C313   1.290       .  A
O308       Zr309   2.443       .  S
O308        C312   1.293       .  A
Zr309       O310   2.337       .  S
Zr309       O311   2.334       .  S
Zr309       O319   2.341       .  S
Zr309       O317   2.351       .  S
O310       Zr336   2.341       .  S
O310       Zr339   2.346       .  S
O311       Zr337   2.337       .  S
O311       Zr338   2.345       .  S
C312       C2152   1.485       .  S
C313       C1564   1.490       .  S
C314       C1588   1.479       .  S
C315       C1144   1.501       .  S
H316        O317   0.964       .  S
O317       Zr336   2.324       .  S
O317       Zr338   2.331       .  S
H318        O319   0.964       .  S
O319       Zr337   2.344       .  S
O319       Zr339   2.341       .  S
O320       Zr336   2.424       .  S
O320        C343   1.291       .  A
O321       Zr337   2.434       .  S
O321        C344   1.291       .  A
O322       Zr338   2.454       .  S
O322        C345   1.296       .  A
O323       Zr339   2.431       .  S
O323        C346   1.292       .  A
O324       Zr339   2.462       .  S
O324        C347   1.297       .  A
O325       Zr338   2.406       .  S
O325        C348   1.287       .  A
O326       Zr340   2.452       .  S
O326        C349   1.294       .  A
O327       Zr340   2.403       .  S
O327        C350   1.286       .  A
O328       Zr338   2.444       .  S
O328        C349   1.294       .  A
O329       Zr339   2.448       .  S
O329        C350   1.295       .  A
O330       Zr336   2.442       .  S
O330        C345   1.293       .  A
O331       Zr337   2.431       .  S
O331        C348   1.291       .  A
O332       Zr337   2.443       .  S
O332        C347   1.294       .  A
O333       Zr336   2.430       .  S
O333        C346   1.291       .  A
O334       Zr340   2.437       .  S
O334        C343   1.292       .  A
O335       Zr340   2.445       .  S
O335        C344   1.294       .  A
Zr336       O342   2.345       .  S
Zr336       O354   2.338       .  S
Zr337       O341   2.330       .  S
Zr337       O352   2.340       .  S
Zr338       O342   2.324       .  S
Zr338       O352   2.343       .  S
Zr339       O341   2.343       .  S
Zr339       O354   2.341       .  S
Zr340       O341   2.349       .  S
Zr340       O342   2.338       .  S
Zr340       O354   2.343       .  S
Zr340       O352   2.322       .  S
C343       C1192   1.482       .  S
C344       C1117   1.488       .  S
C345       C1165   1.502       .  S
C346       C1156   1.468       .  S
C347       C2113   1.502       .  S
C348       C1936   1.461       .  S
C349       C1900   1.499       .  S
C350       C1105   1.470       .  S
H351        O352   0.963       .  S
H353        O354   0.965       .  S
C355        N356   1.355       .  A
C355        N360   1.355       .  A
C355       C1093   1.478       .  S
N356        C357   1.353       .  A
C357        N358   1.352       .  A
C357       C1081   1.472       .  S
N358        C359   1.352       .  A
C359        N360   1.355       .  A
C359       C1069   1.466       .  S
C361        N362   1.362       .  A
C361        N366   1.356       .  A
C361       C1048   1.493       .  S
N362        C363   1.364       .  A
C363        N364   1.363       .  A
C363       C1060   1.498       .  S
N364        C365   1.361       .  A
C365        N366   1.357       .  A
C365       C1372   1.494   1_655  S
C367        N368   1.356       .  A
C367        N372   1.354       .  A
C367       C1036   1.476       .  S
N368        C369   1.356       .  A
C369        N370   1.353       .  A
C369       C1021   1.474       .  S
N370        C371   1.353       .  A
C371        N372   1.355       .  A
C371       C1324   1.474       .  S
C373        N374   1.360       .  A
C373        N378   1.361       .  A
C373       C1009   1.497       .  S
N374        C375   1.359       .  A
C375        N376   1.362       .  A
C375       C1336   1.498       .  S
N376        C377   1.363       .  A
C377        N378   1.363       .  A
C377        C997   1.500       .  S
O379       Zr415   2.428       .  S
O379        C390   1.291       .  A
O380       Zr414   2.442       .  S
O380        C391   1.293       .  A
O381       Zr387   2.409       .  S
O381        C392   1.288       .  A
O382       Zr387   2.459       .  S
O382        C393   1.296       .  A
O383       Zr417   2.430       .  S
O383        C393   1.291       .  A
O384       Zr416   2.434       .  S
O384        C392   1.292       .  A
O385       Zr387   2.437       .  S
O385        C391   1.291       .  A
O386       Zr387   2.417       .  S
O386        C390   1.288       .  A
Zr387       O388   2.321       .  S
Zr387       O389   2.343       .  S
Zr387       O397   2.335       .  S
Zr387       O395   2.345       .  S
O388       Zr414   2.335       .  S
O388       Zr417   2.346       .  S
O389       Zr415   2.337       .  S
O389       Zr416   2.347       .  S
C390       C2008   1.464       .  S
C391       C1825   1.494       .  S
C392       C1849   1.468       .  S
C393       C1012   1.495       .  S
H394        O395   0.965       .  S
O395       Zr414   2.324       .  S
O395       Zr416   2.345       .  S
H396        O397   0.964       .  S
O397       Zr415   2.340       .  S
O397       Zr417   2.328       .  S
O398       Zr414   2.398       .  S
O398        C421   1.286       .  A
O399       Zr415   2.446       .  S
O399        C422   1.294       .  A
O400       Zr416   2.453       .  S
O400        C423   1.295       .  A
O401       Zr417   2.421       .  S
O401        C424   1.290       .  A
O402       Zr417   2.454       .  S
O402        C425   1.295       .  A
O403       Zr416   2.414       .  S
O403        C426   1.288       .  A
O404       Zr418   2.446       .  S
O404        C427   1.294       .  A
O405       Zr418   2.420       .  S
O405        C428   1.289       .  A
O406       Zr416   2.454       .  S
O406        C427   1.295       .  A
O407       Zr417   2.442       .  S
O407        C428   1.294       .  A
O408       Zr414   2.439       .  S
O408        C423   1.292       .  A
O409       Zr415   2.451       .  S
O409        C426   1.295       .  A
O410       Zr415   2.453       .  S
O410        C425   1.296       .  A
O411       Zr414   2.427       .  S
O411        C424   1.290       .  A
O412       Zr418   2.437       .  S
O412        C421   1.292       .  A
O413       Zr418   2.432       .  S
O413        C422   1.292       .  A
Zr414       O420   2.346       .  S
Zr414       O432   2.345       .  S
Zr415       O419   2.332       .  S
Zr415       O430   2.338       .  S
Zr416       O420   2.331       .  S
Zr416       O430   2.344       .  S
Zr417       O419   2.330       .  S
Zr417       O432   2.340       .  S
Zr418       O419   2.340       .  S
Zr418       O420   2.340       .  S
Zr418       O432   2.340       .  S
Zr418       O430   2.331       .  S
C421       C1084   1.472       .  S
C422        C985   1.494       .  S
C423       C1045   1.495       .  S
C424       C1033   1.463       .  S
C425       C1972   1.501       .  S
C426       C1525   1.471       .  S
C427       C1492   1.497       .  S
C428        C973   1.481       .  S
H429        O430   0.964       .  S
H431        O432   0.965       .  S
C433        N434   1.355       .  A
C433        N438   1.356       .  A
C433        C961   1.480       .  S
N434        C435   1.356       .  A
C435        N436   1.358       .  A
C435       C1180   1.484       .  S
N436        C437   1.358       .  A
C437        N438   1.357       .  A
C437        C976   1.483       .  S
C439        N440   1.361       .  A
C439        N444   1.361       .  A
C439        C949   1.497       .  S
N440        C441   1.361       .  A
C441        N442   1.361       .  A
C441        C988   1.497       .  S
N442        C443   1.361       .  A
C443        N444   1.360       .  A
C443        C937   1.496       .  S
C445        N446   1.353       .  A
C445        N450   1.356       .  A
C445        C925   1.478       .  S
N446        C447   1.355       .  A
C447        N448   1.355       .  A
C447        C913   1.479       .  S
N448        C449   1.355       .  A
C449        N450   1.357       .  A
C449       C1108   1.482       .  S
C451        N452   1.357       .  A
C451        N456   1.362       .  A
C451       C1120   1.488       .  S
N452        C453   1.358       .  A
C453        N454   1.361       .  A
C453        C901   1.494       .  S
N454        C455   1.362       .  A
C455        N456   1.361       .  A
C455       C1000   1.499       .  S
C457        N458   1.355       .  A
C457        N462   1.356       .  A
C457        C880   1.476       .  S
N458        C459   1.354       .  A
C459        N460   1.351       .  A
C459        C889   1.474       .  S
N460        C461   1.352       .  A
C461        N462   1.356       .  A
C461       C1072   1.469       .  S
C463        N464   1.361       .  A
C463        N468   1.364       .  A
C463        C865   1.499       .  S
N464        C465   1.360       .  A
C465        N466   1.358       .  A
C465       C1132   1.494       .  S
N466        C467   1.358       .  A
C467        N468   1.363       .  A
C467        C853   1.498       .  S
O469       Zr505   2.401       .  S
O469        C480   1.286       .  A
O470       Zr504   2.444       .  S
O470        C481   1.293       .  A
O471       Zr477   2.456       .  S
O471        C482   1.296       .  A
O472       Zr477   2.418       .  S
O472        C483   1.288       .  A
O473       Zr507   2.430       .  S
O473        C483   1.293       .  A
O474       Zr506   2.438       .  S
O474        C482   1.292       .  A
O475       Zr477   2.450       .  S
O475        C481   1.295       .  A
O476       Zr477   2.420       .  S
O476        C480   1.290       .  A
Zr477       O478   2.343       .  S
Zr477       O479   2.339       .  S
Zr477       O487   2.353       .  S
Zr477       O485   2.324       .  S
O478       Zr504   2.330       .  S
O478       Zr507   2.342       .  S
O479       Zr505   2.339       .  S
O479       Zr506   2.324       .  S
C480       C1861   1.454       .  S
C481       C1576   1.499       .  S
C482        C868   1.499       .  S
C483       C1600   1.479       .  S
H484        O485   0.964       .  S
O485       Zr504   2.334       .  S
O485       Zr506   2.344       .  S
H486        O487   0.966       .  S
O487       Zr505   2.346       .  S
O487       Zr507   2.341       .  S
O488       Zr504   2.419       .  S
O488        C511   1.289       .  A
O489       Zr505   2.440       .  S
O489        C512   1.292       .  A
O490       Zr506   2.411       .  S
O490        C513   1.288       .  A
O491       Zr507   2.458       .  S
O491        C514   1.296       .  A
O492       Zr507   2.433       .  S
O492        C515   1.292       .  A
O493       Zr506   2.451       .  S
O493        C516   1.295       .  A
O494       Zr508   2.409       .  S
O494        C517   1.288       .  A
O495       Zr508   2.445       .  S
O495        C518   1.295       .  A
O496       Zr506   2.434       .  S
O496        C517   1.292       .  A
O497       Zr507   2.433       .  S
O497        C518   1.291       .  A
O498       Zr504   2.427       .  S
O498        C513   1.291       .  A
O499       Zr505   2.431       .  S
O499        C516   1.290       .  A
O500       Zr505   2.418       .  S
O500        C515   1.289       .  A
O501       Zr504   2.433       .  S
O501        C514   1.292       .  A
O502       Zr508   2.437       .  S
O502        C511   1.293       .  A
O503       Zr508   2.447       .  S
O503        C512   1.294       .  A
Zr504       O510   2.340       .  S
Zr504       O522   2.339       .  S
Zr505       O509   2.327       .  S
Zr505       O520   2.323       .  S
Zr506       O510   2.345       .  S
Zr506       O520   2.335       .  S
Zr507       O509   2.340       .  S
Zr507       O522   2.323       .  S
Zr508       O509   2.319       .  S
Zr508       O510   2.343       .  S
Zr508       O522   2.332       .  S
Zr508       O520   2.345       .  S
C511        C964   1.479       .  S
C512        C904   1.494       .  S
C513        C892   1.462       .  S
C514        C952   1.497       .  S
C515       C1768   1.470       .  S
C516       C1840   1.493       .  S
C517        C928   1.462       .  S
C518       C1744   1.494       .  S
H519        O520   0.965       .  S
H521        O522   0.963       .  S
C523        N524   1.355       .  A
C523        N528   1.351       .  A
C523        C829   1.477       .  S
N524        C525   1.357       .  A
C525        N526   1.356       .  A
C525       C1024   1.479       .  S
N526        C527   1.356       .  A
C527        N528   1.352       .  A
C527        C841   1.472       .  S
C529        N530   1.362       .  A
C529        N534   1.359       .  A
C529        C817   1.489       .  S
N530        C531   1.362       .  A
C531        N532   1.358       .  A
C531        C805   1.490       .  S
N532        C533   1.357       .  A
C533        N534   1.358       .  A
C533        C793   1.491       .  S
O535       Zr571   2.416       .  S
O535        C546   1.289       .  A
O536       Zr570   2.437       .  S
O536        C547   1.292       .  A
O537       Zr543   2.448       .  S
O537        C548   1.295       .  A
O538       Zr543   2.406       .  S
O538        C549   1.287       .  A
O539       Zr573   2.431       .  S
O539        C549   1.292       .  A
O540       Zr572   2.439       .  S
O540        C548   1.292       .  A
O541       Zr543   2.452       .  S
O541        C547   1.296       .  A
O542       Zr543   2.438       .  S
O542        C546   1.293       .  A
Zr543       O544   2.339       .  S
Zr543       O545   2.338       .  S
Zr543       O553   2.349       .  S
Zr543       O551   2.324       .  S
O544       Zr570   2.326       .  S
O544       Zr573   2.332       .  S
O545       Zr571   2.340       .  S
O545       Zr572   2.320       .  S
C546       C2065   1.469       .  S
C547       C1453   1.498       .  S
C548       C1057   1.495       .  S
C549       C1480   1.466       .  S
H550        O551   0.964       .  S
O551       Zr570   2.339       .  S
O551       Zr572   2.345       .  S
H552        O553   0.964       .  S
O553       Zr571   2.347       .  S
O553       Zr573   2.341       .  S
O554       Zr570   2.413       .  S
O554        C577   1.287       .  A
O555       Zr571   2.449       .  S
O555        C578   1.294       .  A
O556       Zr572   2.406       .  S
O556        C579   1.287       .  A
O557       Zr573   2.441       .  S
O557        C580   1.292       .  A
O558       Zr573   2.421       .  S
O558        C581   1.290       .  A
O559       Zr572   2.461       .  S
O559        C582   1.296       .  A
O560       Zr574   2.417       .  S
O560        C583   1.290       .  A
O561       Zr574   2.461       .  S
O561        C584   1.297       .  A
O562       Zr572   2.419       .  S
O562        C583   1.289       .  A
O563       Zr573   2.431       .  S
O563        C584   1.292       .  A
O564       Zr570   2.438       .  S
O564        C579   1.293       .  A
O565       Zr571   2.431       .  S
O565        C582   1.291       .  A
O566       Zr571   2.418       .  S
O566        C581   1.289       .  A
O567       Zr570   2.447       .  S
O567        C580   1.294       .  A
O568       Zr574   2.440       .  S
O568        C577   1.294       .  A
O569       Zr574   2.437       .  S
O569        C578   1.293       .  A
Zr570       O576   2.335       .  S
Zr570       O588   2.339       .  S
Zr571       O575   2.336       .  S
Zr571       O586   2.328       .  S
Zr572       O576   2.344       .  S
Zr572       O586   2.338       .  S
Zr573       O575   2.339       .  S
Zr573       O588   2.330       .  S
Zr574       O575   2.327       .  S
Zr574       O576   2.337       .  S
Zr574       O588   2.331       .  S
Zr574       O586   2.354       .  S
C577        C769   1.483       .  S
C578        C820   1.492       .  S
C579       C1096   1.471       .  S
C580        C781   1.492       .  S
C581       C1996   1.466       .  S
C582       C2032   1.498       .  S
C583        C844   1.474       .  S
C584       C1960   1.496       .  S
H585        O586   0.964       .  S
H587        O588   0.964       .  S
C589        N590   1.356       .  A
C589        N594   1.354       .  A
C589       C1201   1.481       .  S
N590        C591   1.359       .  A
C591        N592   1.354       .  A
C591        C916   1.478       .  S
N592        C593   1.353       .  A
C593        N594   1.353       .  A
C593        C757   1.475       .  S
C595        N596   1.358       .  A
C595        N600   1.364       .  A
C595       C1216   1.500       .  S
N596        C597   1.360       .  A
C597        N598   1.360       .  A
C597        C796   1.492       .  S
N598        C599   1.359       .  A
C599        N600   1.364       .  A
C599        C745   1.499       .  S
C601        N602   1.358       .  A
C601        N606   1.354       .  A
C601        C733   1.480       .  S
N602        C603   1.356       .  A
C603        N604   1.354       .  A
C603        C772   1.472       .  S
N604        C605   1.355       .  A
C605        N606   1.354       .  A
C605       C1288   1.473       .  S
C607        N608   1.359       .  A
C607        N612   1.360       .  A
C607        C784   1.494       .  S
N608        C609   1.360       .  A
C609        N610   1.363       .  A
C609        C724   1.499       .  S
N610        C611   1.363       .  A
C611        N612   1.360       .  A
C611        C940   1.496       .  S
O613       Zr649   2.430       .  S
O613        C624   1.291       .  A
O614       Zr648   2.454       .  S
O614        C625   1.295       .  A
O615       Zr621   2.423       .  S
O615        C626   1.290       .  A
O616       Zr621   2.459       .  S
O616        C627   1.297       .  A
O617       Zr651   2.430       .  S
O617        C627   1.290       .  A
O618       Zr650   2.421       .  S
O618        C626   1.291       .  A
O619       Zr621   2.432       .  S
O619        C625   1.292       .  A
O620       Zr621   2.434       .  S
O620        C624   1.292       .  A
Zr621       O622   2.330       .  S
Zr621       O623   2.346       .  S
Zr621       O631   2.334       .  S
Zr621       O629   2.348       .  S
O622       Zr648   2.341       .  S
O622       Zr651   2.344       .  S
O623       Zr649   2.339       .  S
O623       Zr650   2.347       .  S
C624       C2080   1.479       .  S
C625       C1636   1.494       .  S
C626       C1669   1.478       .  S
C627        C856   1.497       .  S
H628        O629   0.964       .  S
O629       Zr648   2.324       .  S
O629       Zr650   2.339       .  S
H630        O631   0.964       .  S
O631       Zr649   2.338       .  S
O631       Zr651   2.326       .  S
O632       Zr648   2.422       .  S
O632        C655   1.290       .  A
O633       Zr649   2.454       .  S
O633        C656   1.296       .  A
O634       Zr650   2.450       .  S
O634        C657   1.294       .  A
O635       Zr651   2.416       .  S
O635        C658   1.290       .  A
O636       Zr651   2.459       .  S
O636        C659   1.297       .  A
O637       Zr650   2.425       .  S
O637        C660   1.290       .  A
O638       Zr652   2.456       .  S
O638        C661   1.295       .  A
O639       Zr652   2.414       .  S
O639        C662   1.289       .  A
O640       Zr650   2.443       .  S
O640        C661   1.294       .  A
O641       Zr651   2.422       .  S
O641        C662   1.290       .  A
O642       Zr648   2.442       .  S
O642        C657   1.294       .  A
O643       Zr649   2.411       .  S
O643        C660   1.289       .  A
O644       Zr649   2.416       .  S
O644        C659   1.287       .  A
O645       Zr648   2.434       .  S
O645        C658   1.292       .  A
O646       Zr652   2.427       .  S
O646        C655   1.291       .  A
O647       Zr652   2.439       .  S
O647        C656   1.292       .  A
Zr648       O654   2.344       .  S
Zr648       O666   2.343       .  S
Zr649       O653   2.325       .  S
Zr649       O664   2.334       .  S
Zr650       O654   2.325       .  S
Zr650       O664   2.338       .  S
Zr651       O653   2.330       .  S
Zr651       O666   2.346       .  S
Zr652       O653   2.339       .  S
Zr652       O654   2.335       .  S
Zr652       O666   2.344       .  S
Zr652       O664   2.322       .  S
C655        C736   1.466       .  S
C656        C748   1.500       .  S
C657        C721   1.499       .  S
C658        C877   1.480       .  S
C659       C2044   1.492       .  S
C660       C1756   1.476       .  S
C661       C1732   1.498       .  S
C662        C760   1.468       .  S
H663        O664   0.964       .  S
H665        O666   0.965       .  S
O667       Zr703   2.419       .  S
O667        C678   1.290       .  A
O668       Zr702   2.446       .  S
O668        C679   1.293       .  A
O669       Zr675   2.407       .  S
O669        C680   1.287       .  A
O670       Zr675   2.456       .  S
O670        C681   1.296       .  A
O671       Zr705   2.434       .  S
O671        C681   1.292       .  A
O672       Zr704   2.440       .  S
O672        C680   1.294       .  A
O673       Zr675   2.445       .  S
O673        C679   1.294       .  A
O674       Zr675   2.444       .  S
O674        C678   1.294       .  A
Zr675       O676   2.325       .  S
Zr675       O677   2.341       .  S
Zr675       O685   2.335       .  S
Zr675       O683   2.349       .  S
O676       Zr702   2.337       .  S
O676       Zr705   2.342       .  S
O677       Zr703   2.336       .  S
O677       Zr704   2.344       .  S
C678       C1804   1.477       .  S
C679       C1441   1.495       .  S
C680       C1465   1.473       .  S
C681       C1393   1.496       .  S
H682        O683   0.964       .  S
O683       Zr702   2.324       .  S
O683       Zr704   2.338       .  S
H684        O685   0.964       .  S
O685       Zr703   2.347       .  S
O685       Zr705   2.332       .  S
O686       Zr702   2.411       .  S
O686        C709   1.288       .  A
O687       Zr703   2.450       .  S
O687        C710   1.295       .  A
O688       Zr704   2.459       .  S
O688        C711   1.297       .  A
O689       Zr705   2.429       .  S
O689        C712   1.291       .  A
O690       Zr705   2.459       .  S
O690        C713   1.297       .  A
O691       Zr704   2.425       .  S
O691        C714   1.290       .  A
O692       Zr706   2.453       .  S
O692        C715   1.295       .  A
O693       Zr706   2.423       .  S
O693        C716   1.290       .  A
O694       Zr704   2.455       .  S
O694        C715   1.295       .  A
O695       Zr705   2.424       .  S
O695        C716   1.290       .  A
O696       Zr702   2.446       .  S
O696        C711   1.293       .  A
O697       Zr703   2.430       .  S
O697        C714   1.292       .  A
O698       Zr703   2.434       .  S
O698        C713   1.291       .  A
O699       Zr702   2.435       .  S
O699        C712   1.292       .  A
O700       Zr706   2.429       .  S
O700        C709   1.291       .  A
O701       Zr706   2.428       .  S
O701        C710   1.290       .  A
Zr702       O708   2.344       .  S
Zr702       O720   2.346       .  S
Zr703       O707   2.328       .  S
Zr703       O718   2.337       .  S
Zr704       O708   2.331       .  S
Zr704       O718   2.345       .  S
Zr705       O707   2.339       .  S
Zr705       O720   2.345       .  S
Zr706       O707   2.344       .  S
Zr706       O708   2.341       .  S
Zr706       O720   2.344       .  S
Zr706       O718   2.330       .  S
C709       C1312   1.460       .  S
C710        C808   1.490       .  S
C711       C1273   1.503       .  S
C712       C1432   1.478       .  S
C713       C1777   1.496       .  S
C714       C1705   1.475       .  S
C715       C1681   1.502       .  S
C716        C832   1.466       .  S
H717        O718   0.964       .  S
H719        O720   0.965       .  S
C721        C722   1.407       .  A
C721        C726   1.415       .  A
C722        C723   1.402       .  A
C722        H727   1.083       .  S
C723        C724   1.416       .  A
C723        O728   1.371       .  S
C724        C725   1.407       .  A
C725        C726   1.404       .  A
C725        H729   1.083       .  S
C726        O730   1.371       .  S
O728        H732   0.992       .  S
O730        H731   0.992       .  S
C733        C734   1.406       .  A
C733        C738   1.415       .  A
C734        C735   1.394       .  A
C734        H739   1.083       .  S
C735        C736   1.406       .  A
C735        O740   1.372       .  S
C736        C737   1.400       .  A
C737        C738   1.395       .  A
C737        H741   1.084       .  S
C738        O742   1.372       .  S
O740        H744   0.992       .  S
O742        H743   0.992       .  S
C745        C746   1.406       .  A
C745        C750   1.416       .  A
C746        C747   1.403       .  A
C746        H751   1.083       .  S
C747        C748   1.416       .  A
C747        O752   1.371       .  S
C748        C749   1.407       .  A
C749        C750   1.404       .  A
C749        H753   1.083       .  S
C750        O754   1.371       .  S
O752        H756   0.992       .  S
O754        H755   0.992       .  S
C757        C758   1.407       .  A
C757        C762   1.411       .  A
C758        C759   1.394       .  A
C758        H763   1.083       .  S
C759        C760   1.408       .  A
C759        O764   1.373       .  S
C760        C761   1.402       .  A
C761        C762   1.390       .  A
C761        H765   1.084       .  S
C762        O766   1.372       .  S
O764        H768   0.991       .  S
O766        H767   0.991       .  S
C769        C770   1.405       .  A
C769        C774   1.417       .  A
C770        C771   1.398       .  A
C770        H775   1.083       .  S
C771        C772   1.409       .  A
C771        O776   1.371       .  S
C772        C773   1.399       .  A
C773        C774   1.394       .  A
C773        H777   1.084       .  S
C774        O778   1.372       .  S
O776        H780   0.992       .  S
O778        H779   0.992       .  S
C781        C782   1.406       .  A
C781        C786   1.415       .  A
C782        C783   1.401       .  A
C782        H787   1.083       .  S
C783        C784   1.414       .  A
C783        O788   1.370       .  S
C784        C785   1.407       .  A
C785        C786   1.402       .  A
C785        H789   1.083       .  S
C786        O790   1.372       .  S
O788        H792   0.992       .  S
O790        H791   0.992       .  S
C793        C794   1.406       .  A
C793        C798   1.413       .  A
C794        C795   1.399   1_554  A
C794        H799   1.083       .  S
C795        C796   1.414       .  A
C795        O800   1.370       .  S
C796        C797   1.406       .  A
C797        C798   1.399   1_556  A
C797        H801   1.083       .  S
C798        O802   1.371       .  S
O800        H804   0.992       .  S
O802        H803   0.992       .  S
C805        C806   1.406       .  A
C805        C810   1.414       .  A
C806        C807   1.403       .  A
C806        H811   1.083       .  S
C807        C808   1.415       .  A
C807        O812   1.372       .  S
C808        C809   1.404       .  A
C809        C810   1.397       .  A
C809        H813   1.083       .  S
C810        O814   1.370       .  S
O812        H816   0.992       .  S
O814        H815   0.992       .  S
C817        C818   1.407       .  A
C817        C822   1.411       .  A
C818        C819   1.400       .  A
C818        H823   1.083       .  S
C819        C820   1.414       .  A
C819        O824   1.372       .  S
C820        C821   1.409       .  A
C821        C822   1.402       .  A
C821        H825   1.083       .  S
C822        O826   1.371       .  S
O824        H828   0.992       .  S
O826        H827   0.992       .  S
C829        C830   1.405       .  A
C829        C834   1.414       .  A
C830        C831   1.394       .  A
C830        H835   1.083       .  S
C831        C832   1.407       .  A
C831        O836   1.372       .  S
C832        C833   1.399       .  A
C833        C834   1.395       .  A
C833        H837   1.084       .  S
C834        O838   1.371       .  S
O836        H840   0.992       .  S
O838        H839   0.992       .  S
C841        C842   1.404       .  A
C841        C846   1.409       .  A
C842        C843   1.396       .  A
C842        H847   1.083       .  S
C843        C844   1.412       .  A
C843        O848   1.372       .  S
C844        C845   1.402       .  A
C845        C846   1.390       .  A
C845        H849   1.084       .  S
C846        O850   1.372       .  S
O848        H852   0.992       .  S
O850        H851   0.992       .  S
C853        C854   1.406       .  A
C853        C858   1.416       .  A
C854        C855   1.404       .  A
C854        H859   1.083       .  S
C855        C856   1.417       .  A
C855        O860   1.372       .  S
C856        C857   1.405       .  A
C857        C858   1.401       .  A
C857        H861   1.083       .  S
C858        O862   1.369       .  S
O860        H864   0.992       .  S
O862        H863   0.992       .  S
C865        C866   1.406       .  A
C865        C870   1.416       .  A
C866        C867   1.402       .  A
C866        H871   1.083       .  S
C867        C868   1.417       .  A
C867        O872   1.371       .  S
C868        C869   1.407       .  A
C869        C870   1.404       .  A
C869        H873   1.083       .  S
C870        O874   1.371       .  S
O872        H876   0.993       .  S
O874        H875   0.992       .  S
C877        C878   1.406       .  A
C877        C882   1.412       .  A
C878        C879   1.391       .  A
C878        H883   1.083       .  S
C879        C880   1.409       .  A
C879        O884   1.372       .  S
C880        C881   1.405       .  A
C881        C882   1.397       .  A
C881        H885   1.083       .  S
C882        O886   1.372       .  S
O884        H888   0.993       .  S
O886        H887   0.992       .  S
C889        C890   1.405       .  A
C889        C894   1.413       .  A
C890        C891   1.393       .  A
C890        H895   1.083       .  S
C891        C892   1.406       .  A
C891        O896   1.372       .  S
C892        C893   1.398       .  A
C893        C894   1.392       .  A
C893        H897   1.084       .  S
C894        O898   1.372       .  S
O896        H900   0.990       .  S
O898        H899   0.991       .  S
C901        C902   1.408       .  A
C901        C906   1.414       .  A
C902        C903   1.404       .  A
C902        H907   1.083       .  S
C903        C904   1.415       .  A
C903        O908   1.372       .  S
C904        C905   1.406       .  A
C905        C906   1.399       .  A
C905        H909   1.083       .  S
C906        O910   1.371       .  S
O908        H912   0.992       .  S
O910        H911   0.992       .  S
C913        C914   1.405       .  A
C913        C918   1.411       .  A
C914        C915   1.394       .  A
C914        H919   1.083       .  S
C915        C916   1.413       .  A
C915        O920   1.372       .  S
C916        C917   1.402       .  A
C917        C918   1.392       .  A
C917        H921   1.083       .  S
C918        O922   1.369       .  S
O920        H924   0.992       .  S
O922        H923   0.991       .  S
C925        C926   1.406       .  A
C925        C930   1.415       .  A
C926        C927   1.392       .  A
C926        H931   1.083       .  S
C927        C928   1.406       .  A
C927        O932   1.373       .  S
C928        C929   1.398       .  A
C929        C930   1.395       .  A
C929        H933   1.084       .  S
C930        O934   1.371       .  S
O932        H936   0.991       .  S
O934        H935   0.992       .  S
C937        C938   1.407       .  A
C937        C942   1.415       .  A
C938        C939   1.402       .  A
C938        H943   1.083       .  S
C939        C940   1.415   1_565  A
C939        O944   1.371   1_565  S
C940        C941   1.407   1_545  A
C941        C942   1.404       .  A
C941        H945   1.083   1_565  S
C942        O946   1.371       .  S
O944        H948   0.992       .  S
O946        H947   0.992       .  S
C949        C950   1.408       .  A
C949        C954   1.414       .  A
C950        C951   1.403       .  A
C950        H955   1.083       .  S
C951        C952   1.413       .  A
C951        O956   1.371       .  S
C952        C953   1.409       .  A
C953        C954   1.401       .  A
C953        H957   1.083       .  S
C954        O958   1.371       .  S
O956        H960   0.991       .  S
O958        H959   0.992       .  S
C961        C962   1.404       .  A
C961        C966   1.412       .  A
C962        C963   1.396       .  A
C962        H967   1.083       .  S
C963        C964   1.413       .  A
C963        O968   1.372       .  S
C964        C965   1.403       .  A
C965        C966   1.396       .  A
C965        H969   1.083       .  S
C966        O970   1.372       .  S
O968        H972   0.992       .  S
O970        H971   0.992       .  S
C973        C974   1.404       .  A
C973        C978   1.413       .  A
C974        C975   1.398       .  A
C974        H979   1.083       .  S
C975        C976   1.412       .  A
C975        O980   1.371       .  S
C976        C977   1.406       .  A
C977        C978   1.396       .  A
C977        H981   1.083       .  S
C978        O982   1.372       .  S
O980        H984   0.991       .  S
O982        H983   0.992       .  S
C985        C986   1.407       .  A
C985        C990   1.413       .  A
C986        C987   1.400       .  A
C986        H991   1.083       .  S
C987        C988   1.414       .  A
C987        O992   1.370       .  S
C988        C989   1.408       .  A
C989        C990   1.403       .  A
C989        H993   1.083       .  S
C990        O994   1.372       .  S
O992        H996   0.992       .  S
O994        H995   0.992       .  S
C997        C998   1.409       .  A
C997       C1002   1.414       .  A
C998        C999   1.405   1_554  A
C998       H1003   1.083       .  S
C999       C1000   1.415       .  A
C999       O1004   1.371       .  S
C1000      C1001   1.407       .  A
C1001      C1002   1.402   1_556  A
C1001      H1005   1.083       .  S
C1002      O1006   1.371       .  S
O1004      H1008   0.992       .  S
O1006      H1007   0.992       .  S
C1009      C1010   1.406       .  A
C1009      C1014   1.414       .  A
C1010      C1011   1.400       .  A
C1010      H1015   1.083       .  S
C1011      C1012   1.415       .  A
C1011      O1016   1.372       .  S
C1012      C1013   1.407       .  A
C1013      C1014   1.405       .  A
C1013      H1017   1.083       .  S
C1014      O1018   1.371       .  S
O1016      H1020   0.992       .  S
O1018      H1019   0.992       .  S
C1021      C1022   1.403       .  A
C1021      C1026   1.411       .  A
C1022      C1023   1.394       .  A
C1022      H1027   1.084       .  S
C1023      C1024   1.412       .  A
C1023      O1028   1.371       .  S
C1024      C1025   1.405       .  A
C1025      C1026   1.392       .  A
C1025      H1029   1.083       .  S
C1026      O1030   1.372       .  S
O1028      H1032   0.991       .  S
O1030      H1031   0.992       .  S
C1033      C1034   1.400       .  A
C1033      C1038   1.405       .  A
C1034      C1035   1.393       .  A
C1034      H1039   1.084       .  S
C1035      C1036   1.413       .  A
C1035      O1040   1.371       .  S
C1036      C1037   1.406       .  A
C1037      C1038   1.395       .  A
C1037      H1041   1.083       .  S
C1038      O1042   1.372       .  S
O1040      H1044   0.992       .  S
O1042      H1043   0.992       .  S
C1045      C1046   1.406       .  A
C1045      C1050   1.415       .  A
C1046      C1047   1.402       .  A
C1046      H1051   1.083       .  S
C1047      C1048   1.416       .  A
C1047      O1052   1.372       .  S
C1048      C1049   1.405       .  A
C1049      C1050   1.403       .  A
C1049      H1053   1.083       .  S
C1050      O1054   1.372       .  S
O1052      H1056   0.991       .  S
O1054      H1055   0.992       .  S
C1057      C1058   1.406       .  A
C1057      C1062   1.415       .  A
C1058      C1059   1.400       .  A
C1058      H1063   1.083       .  S
C1059      C1060   1.414       .  A
C1059      O1064   1.370       .  S
C1060      C1061   1.409       .  A
C1061      C1062   1.404       .  A
C1061      H1065   1.083       .  S
C1062      O1066   1.372       .  S
O1064      H1068   0.991       .  S
O1066      H1067   0.992       .  S
C1069      C1070   1.402       .  A
C1069      C1074   1.407       .  A
C1070      C1071   1.391       .  A
C1070      H1075   1.084       .  S
C1071      C1072   1.411       .  A
C1071      O1076   1.372       .  S
C1072      C1073   1.403       .  A
C1073      C1074   1.393       .  A
C1073      H1077   1.083       .  S
C1074      O1078   1.371       .  S
O1076      H1080   0.992       .  S
O1078      H1079   0.992       .  S
C1081      C1082   1.406       .  A
C1081      C1086   1.408       .  A
C1082      C1083   1.393       .  A
C1082      H1087   1.083       .  S
C1083      C1084   1.408       .  A
C1083      O1088   1.372       .  S
C1084      C1085   1.407       .  A
C1085      C1086   1.390       .  A
C1085      H1089   1.084       .  S
C1086      O1090   1.372       .  S
O1088      H1092   0.992       .  S
O1090      H1091   0.992       .  S
C1093      C1094   1.405       .  A
C1093      C1098   1.414       .  A
C1094      C1095   1.390       .  A
C1094      H1099   1.083       .  S
C1095      C1096   1.410       .  A
C1095      O1100   1.373       .  S
C1096      C1097   1.401       .  A
C1097      C1098   1.396       .  A
C1097      H1101   1.083       .  S
C1098      O1102   1.371       .  S
O1100      H1104   0.992       .  S
O1102      H1103   0.992       .  S
C1105      C1106   1.399       .  A
C1105      C1110   1.409       .  A
C1106      C1107   1.396       .  A
C1106      H1111   1.084       .  S
C1107      C1108   1.415       .  A
C1107      O1112   1.370       .  S
C1108      C1109   1.405       .  A
C1109      C1110   1.393       .  A
C1109      H1113   1.083       .  S
C1110      O1114   1.373       .  S
O1112      H1116   0.992       .  S
O1114      H1115   0.991       .  S
C1117      C1118   1.406       .  A
C1117      C1122   1.413       .  A
C1118      C1119   1.404       .  A
C1118      H1123   1.084       .  S
C1119      C1120   1.414       .  A
C1119      O1124   1.372       .  S
C1120      C1121   1.404       .  A
C1121      C1122   1.400       .  A
C1121      H1125   1.083       .  S
C1122      O1126   1.372       .  S
O1124      H1128   0.993       .  S
O1126      H1127   0.992       .  S
C1129      C1130   1.405       .  A
C1129      C1134   1.414       .  A
C1130      C1131   1.399       .  A
C1130      H1135   1.083       .  S
C1131      C1132   1.414   1_455  A
C1131      O1136   1.370       .  S
C1132      C1133   1.406   1_655  A
C1133      C1134   1.402       .  A
C1133      H1137   1.083       .  S
C1134      O1138   1.370       .  S
O1136      H1140   0.992       .  S
O1138      H1139   0.992       .  S
C1141      C1142   1.405       .  A
C1141      C1146   1.415       .  A
C1142      C1143   1.403       .  A
C1142      H1147   1.083       .  S
C1143      C1144   1.417       .  A
C1143      O1148   1.371       .  S
C1144      C1145   1.408       .  A
C1145      C1146   1.405       .  A
C1145      H1149   1.083       .  S
C1146      O1150   1.371       .  S
O1148      H1152   0.992       .  S
O1150      H1151   0.992       .  S
C1153      C1154   1.407       .  A
C1153      C1158   1.416       .  A
C1154      C1155   1.399       .  A
C1154      H1159   1.083       .  S
C1155      C1156   1.408       .  A
C1155      O1160   1.372       .  S
C1156      C1157   1.398       .  A
C1157      C1158   1.392       .  A
C1157      H1161   1.083       .  S
C1158      O1162   1.372       .  S
O1160      H1164   0.992       .  S
O1162      H1163   0.993       .  S
C1165      C1166   1.408       .  A
C1165      C1170   1.416       .  A
C1166      C1167   1.405       .  A
C1166      H1171   1.083       .  S
C1167      C1168   1.415       .  A
C1167      O1172   1.371       .  S
C1168      C1169   1.409       .  A
C1169      C1170   1.405       .  A
C1169      H1173   1.083       .  S
C1170      O1174   1.372       .  S
O1172      H1176   0.992       .  S
O1174      H1175   0.992       .  S
C1177      C1178   1.406       .  A
C1177      C1182   1.411       .  A
C1178      C1179   1.397       .  A
C1178      H1183   1.083       .  S
C1179      C1180   1.412       .  A
C1179      O1184   1.371       .  S
C1180      C1181   1.406       .  A
C1181      C1182   1.395       .  A
C1181      H1185   1.083       .  S
C1182      O1186   1.372       .  S
O1184      H1188   0.992       .  S
O1186      H1187   0.992       .  S
C1189      C1190   1.405       .  A
C1189      C1194   1.410       .  A
C1190      C1191   1.398       .  A
C1190      H1195   1.083       .  S
C1191      C1192   1.412       .  A
C1191      O1196   1.372       .  S
C1192      C1193   1.406       .  A
C1193      C1194   1.395       .  A
C1193      H1197   1.083       .  S
C1194      O1198   1.371       .  S
O1196      H1200   0.992       .  S
O1198      H1199   0.992       .  S
C1201      C1202   1.407       .  A
C1201      C1206   1.413       .  A
C1202      C1203   1.395       .  A
C1202      H1207   1.083       .  S
C1203      C1204   1.406       .  A
C1203      O1208   1.373       .  S
C1204      C1205   1.402       .  A
C1205      C1206   1.398       .  A
C1205      H1209   1.084       .  S
C1206      O1210   1.371       .  S
O1208      H1212   0.992       .  S
O1210      H1211   0.992       .  S
C1213      C1214   1.409       .  A
C1213      C1218   1.417       .  A
C1214      C1215   1.407       .  A
C1214      H1219   1.083       .  S
C1215      C1216   1.418       .  A
C1215      O1220   1.372       .  S
C1216      C1217   1.405       .  A
C1217      C1218   1.401       .  A
C1217      H1221   1.083       .  S
C1218      O1222   1.371       .  S
O1220      H1224   0.992       .  S
O1222      H1223   0.992       .  S
C1225      C1226   1.402       .  A
C1225      C1230   1.406       .  A
C1226      C1227   1.397       .  A
C1226      H1231   1.084       .  S
C1227      C1228   1.414       .  A
C1227      O1232   1.372       .  S
C1228      C1229   1.408       .  A
C1229      C1230   1.391       .  A
C1229      H1233   1.083       .  S
C1230      O1234   1.372       .  S
O1232      H1236   0.992       .  S
O1234      H1235   0.992       .  S
C1237      C1238   1.408       .  A
C1237      C1242   1.415       .  A
C1238      C1239   1.405       .  A
C1238      H1243   1.083       .  S
C1239      C1240   1.416       .  A
C1239      O1244   1.371       .  S
C1240      C1241   1.406       .  A
C1241      C1242   1.399       .  A
C1241      H1245   1.083       .  S
C1242      O1246   1.372       .  S
O1244      H1248   0.992       .  S
O1246      H1247   0.992       .  S
C1249      C1250   1.402   1_545  A
C1249      C1254   1.417   1_545  A
C1250      C1251   1.401       .  A
C1250      H1255   1.083   1_565  S
C1251      C1252   1.415       .  A
C1251      O1256   1.371       .  S
C1252      C1253   1.406       .  A
C1253      C1254   1.406       .  A
C1253      H1257   1.083       .  S
C1254      O1258   1.371   1_565  S
O1256      H1260   0.992       .  S
O1258      H1259   0.992       .  S
C1261      C1262   1.407       .  A
C1261      C1266   1.413       .  A
C1262      C1263   1.405       .  A
C1262      H1267   1.083       .  S
C1263      C1264   1.413       .  A
C1263      O1268   1.372       .  S
C1264      C1265   1.405       .  A
C1265      C1266   1.398       .  A
C1265      H1269   1.083       .  S
C1266      O1270   1.372       .  S
O1268      H1272   0.991       .  S
O1270      H1271   0.992       .  S
C1273      C1274   1.409       .  A
C1273      C1278   1.416       .  A
C1274      C1275   1.407       .  A
C1274      H1279   1.083       .  S
C1275      C1276   1.415       .  A
C1275      O1280   1.371       .  S
C1276      C1277   1.408       .  A
C1277      C1278   1.404       .  A
C1277      H1281   1.083       .  S
C1278      O1282   1.372       .  S
O1280      H1284   0.991       .  S
O1282      H1283   0.992       .  S
C1285      C1286   1.403       .  A
C1285      C1290   1.408       .  A
C1286      C1287   1.388       .  A
C1286      H1291   1.083       .  S
C1287      C1288   1.408       .  A
C1287      O1292   1.370       .  S
C1288      C1289   1.406       .  A
C1289      C1290   1.396       .  A
C1289      H1293   1.083       .  S
C1290      O1294   1.371       .  S
O1292      H1296   0.992       .  S
O1294      H1295   0.992       .  S
C1297      C1298   1.401       .  A
C1297      C1302   1.406       .  A
C1298      C1299   1.398       .  A
C1298      H1303   1.084       .  S
C1299      C1300   1.414       .  A
C1299      O1304   1.371       .  S
C1300      C1301   1.406       .  A
C1301      C1302   1.392       .  A
C1301      H1305   1.083       .  S
C1302      O1306   1.373       .  S
O1304      H1308   0.992       .  S
O1306      H1307   0.992       .  S
C1309      C1310   1.409       .  A
C1309      C1314   1.412       .  A
C1310      C1311   1.394       .  A
C1310      H1315   1.083       .  S
C1311      C1312   1.404       .  A
C1311      O1316   1.373       .  S
C1312      C1313   1.400       .  A
C1313      C1314   1.392       .  A
C1313      H1317   1.084       .  S
C1314      O1318   1.371       .  S
O1316      H1320   0.992       .  S
O1318      H1319   0.992       .  S
C1321      C1322   1.403       .  A
C1321      C1326   1.408       .  A
C1322      C1323   1.391       .  A
C1322      H1327   1.084       .  S
C1323      C1324   1.409       .  A
C1323      O1328   1.372       .  S
C1324      C1325   1.407       .  A
C1325      C1326   1.395       .  A
C1325      H1329   1.083       .  S
C1326      O1330   1.372       .  S
O1328      H1332   0.992       .  S
O1330      H1331   0.992       .  S
C1333      C1334   1.408       .  A
C1333      C1338   1.416       .  A
C1334      C1335   1.402       .  A
C1334      H1339   1.083       .  S
C1335      C1336   1.415       .  A
C1335      O1340   1.371       .  S
C1336      C1337   1.407       .  A
C1337      C1338   1.404       .  A
C1337      H1341   1.083       .  S
C1338      O1342   1.372       .  S
O1340      H1344   0.992       .  S
O1342      H1343   0.992       .  S
C1345      C1346   1.408       .  A
C1345      C1350   1.411       .  A
C1346      C1347   1.388       .  A
C1346      H1351   1.083       .  S
C1347      C1348   1.406       .  A
C1347      O1352   1.371       .  S
C1348      C1349   1.407       .  A
C1349      C1350   1.400       .  A
C1349      H1353   1.083       .  S
C1350      O1354   1.371       .  S
O1352      H1356   0.992       .  S
O1354      H1355   0.992       .  S
C1357      C1358   1.405       .  A
C1357      C1362   1.416       .  A
C1358      C1359   1.407       .  A
C1358      H1363   1.083       .  S
C1359      C1360   1.416       .  A
C1359      O1364   1.372       .  S
C1360      C1361   1.404       .  A
C1361      C1362   1.401       .  A
C1361      H1365   1.083       .  S
C1362      O1366   1.372       .  S
O1364      H1368   0.992       .  S
O1366      H1367   0.992       .  S
C1369      C1370   1.408       .  A
C1369      C1374   1.412       .  A
C1370      C1371   1.402       .  A
C1370      H1375   1.083       .  S
C1371      C1372   1.412       .  A
C1371      O1376   1.370       .  S
C1372      C1373   1.408       .  A
C1373      C1374   1.401       .  A
C1373      H1377   1.083       .  S
C1374      O1378   1.371       .  S
O1376      H1380   0.992       .  S
O1378      H1379   0.992       .  S
C1381      C1382   1.406       .  A
C1381      C1386   1.415       .  A
C1382      C1383   1.402       .  A
C1382      H1387   1.083       .  S
C1383      C1384   1.415       .  A
C1383      O1388   1.370       .  S
C1384      C1385   1.406       .  A
C1385      C1386   1.399       .  A
C1385      H1389   1.083       .  S
C1386      O1390   1.372       .  S
O1388      H1392   0.991       .  S
O1390      H1391   0.991       .  S
C1393      C1394   1.410       .  A
C1393      C1398   1.413       .  A
C1394      C1395   1.405       .  A
C1394      H1399   1.083       .  S
C1395      C1396   1.413       .  A
C1395      O1400   1.372       .  S
C1396      C1397   1.407       .  A
C1397      C1398   1.401       .  A
C1397      H1401   1.083       .  S
C1398      O1402   1.372       .  S
O1400      H1404   0.992       .  S
O1402      H1403   0.991       .  S
C1405      C1406   1.404       .  A
C1405      C1410   1.412       .  A
C1406      C1407   1.398       .  A
C1406      H1411   1.083       .  S
C1407      C1408   1.412       .  A
C1407      O1412   1.371       .  S
C1408      C1409   1.406       .  A
C1409      C1410   1.394       .  A
C1409      H1413   1.083       .  S
C1410      O1414   1.372       .  S
O1412      H1416   0.992       .  S
O1414      H1415   0.992       .  S
C1417      C1418   1.407       .  A
C1417      C1422   1.414       .  A
C1418      C1419   1.395       .  A
C1418      H1423   1.083       .  S
C1419      C1420   1.409       .  A
C1419      O1424   1.372       .  S
C1420      C1421   1.401       .  A
C1421      C1422   1.398       .  A
C1421      H1425   1.084       .  S
C1422      O1426   1.369       .  S
O1424      H1428   0.991       .  S
O1426      H1427   0.991       .  S
C1429      C1430   1.405       .  A
C1429      C1434   1.413       .  A
C1430      C1431   1.396       .  A
C1430      H1435   1.083       .  S
C1431      C1432   1.410       .  A
C1431      O1436   1.373       .  S
C1432      C1433   1.404       .  A
C1433      C1434   1.398       .  A
C1433      H1437   1.084       .  S
C1434      O1438   1.371       .  S
O1436      H1440   0.992       .  S
O1438      H1439   0.992       .  S
C1441      C1442   1.407       .  A
C1441      C1446   1.415       .  A
C1442      C1443   1.403       .  A
C1442      H1447   1.083       .  S
C1443      C1444   1.414       .  A
C1443      O1448   1.371       .  S
C1444      C1445   1.407       .  A
C1445      C1446   1.402       .  A
C1445      H1449   1.083       .  S
C1446      O1450   1.372       .  S
O1448      H1452   0.992       .  S
O1450      H1451   0.992       .  S
C1453      C1454   1.406       .  A
C1453      C1458   1.416       .  A
C1454      C1455   1.400       .  A
C1454      H1459   1.083       .  S
C1455      C1456   1.415       .  A
C1455      O1460   1.371   1_655  S
C1456      C1457   1.408       .  A
C1457      C1458   1.405       .  A
C1457      H1461   1.083       .  S
C1458      O1462   1.372       .  S
O1460      H1464   0.992       .  S
O1462      H1463   0.992       .  S
C1465      C1466   1.401       .  A
C1465      C1470   1.412       .  A
C1466      C1467   1.394       .  A
C1466      H1471   1.084       .  S
C1467      C1468   1.414       .  A
C1467      O1472   1.371       .  S
C1468      C1469   1.404       .  A
C1469      C1470   1.393       .  A
C1469      H1473   1.083       .  S
C1470      O1474   1.373       .  S
O1472      H1476   0.992       .  S
O1474      H1475   0.992       .  S
C1477      C1478   1.406       .  A
C1477      C1482   1.413       .  A
C1478      C1479   1.392       .  A
C1478      H1483   1.083       .  S
C1479      C1480   1.408       .  A
C1479      O1484   1.373       .  S
C1480      C1481   1.400       .  A
C1481      C1482   1.393       .  A
C1481      H1485   1.084       .  S
C1482      O1486   1.371       .  S
O1484      H1488   0.992       .  S
O1486      H1487   0.992       .  S
C1489      C1490   1.408       .  A
C1489      C1494   1.414       .  A
C1490      C1491   1.404       .  A
C1490      H1495   1.083       .  S
C1491      C1492   1.415       .  A
C1491      O1496   1.372       .  S
C1492      C1493   1.407       .  A
C1493      C1494   1.404       .  A
C1493      H1497   1.083       .  S
C1494      O1498   1.371   1_655  S
O1496      H1500   0.992       .  S
O1498      H1499   0.992       .  S
C1501      C1502   1.408       .  A
C1501      C1506   1.414       .  A
C1502      C1503   1.407       .  A
C1502      H1507   1.083       .  S
C1503      C1504   1.415       .  A
C1503      O1508   1.372       .  S
C1504      C1505   1.406       .  A
C1505      C1506   1.404       .  A
C1505      H1509   1.083       .  S
C1506      O1510   1.370       .  S
O1508      H1512   0.992       .  S
O1510      H1511   0.992       .  S
C1513      C1514   1.406       .  A
C1513      C1518   1.411       .  A
C1514      C1515   1.399       .  A
C1514      H1519   1.083   1_455  S
C1515      C1516   1.410   1_565  A
C1515      O1520   1.371   1_465  S
C1516      C1517   1.402   1_545  A
C1517      C1518   1.388       .  A
C1517      H1521   1.083   1_565  S
C1518      O1522   1.372       .  S
O1520      H1524   0.992       .  S
O1522      H1523   0.992       .  S
C1525      C1526   1.400       .  A
C1525      C1530   1.409       .  A
C1526      C1527   1.398       .  A
C1526      H1531   1.084       .  S
C1527      C1528   1.414       .  A
C1527      O1532   1.371       .  S
C1528      C1529   1.407       .  A
C1529      C1530   1.396       .  A
C1529      H1533   1.083   1_655  S
C1530      O1534   1.373       .  S
O1532      H1536   0.992       .  S
O1534      H1535   0.992       .  S
C1537      C1538   1.405       .  A
C1537      C1542   1.416       .  A
C1538      C1539   1.396       .  A
C1538      H1543   1.083       .  S
C1539      C1540   1.409       .  A
C1539      O1544   1.372       .  S
C1540      C1541   1.399       .  A
C1541      C1542   1.396       .  A
C1541      H1545   1.084       .  S
C1542      O1546   1.372       .  S
O1544      H1548   0.992       .  S
O1546      H1547   0.992       .  S
C1549      C1550   1.407       .  A
C1549      C1554   1.414       .  A
C1550      C1551   1.402       .  A
C1550      H1555   1.083       .  S
C1551      C1552   1.414       .  A
C1551      O1556   1.371       .  S
C1552      C1553   1.410       .  A
C1553      C1554   1.407       .  A
C1553      H1557   1.083   1_455  S
C1554      O1558   1.371   1_455  S
O1556      H1560   0.992       .  S
O1558      H1559   0.992       .  S
C1561      C1562   1.408       .  A
C1561      C1566   1.414       .  A
C1562      C1563   1.404       .  A
C1562      H1567   1.083       .  S
C1563      C1564   1.415       .  A
C1563      O1568   1.372       .  S
C1564      C1565   1.404       .  A
C1565      C1566   1.398       .  A
C1565      H1569   1.083       .  S
C1566      O1570   1.371       .  S
O1568      H1572   0.992       .  S
O1570      H1571   0.991       .  S
C1573      C1574   1.407       .  A
C1573      C1578   1.415       .  A
C1574      C1575   1.404       .  A
C1574      H1579   1.083       .  S
C1575      C1576   1.416       .  A
C1575      O1580   1.372       .  S
C1576      C1577   1.408       .  A
C1577      C1578   1.403       .  A
C1577      H1581   1.083       .  S
C1578      O1582   1.371       .  S
O1580      H1584   0.992       .  S
O1582      H1583   0.992   1_655  S
C1585      C1586   1.406       .  A
C1585      C1590   1.413       .  A
C1586      C1587   1.397       .  A
C1586      H1591   1.083       .  S
C1587      C1588   1.411       .  A
C1587      O1592   1.372       .  S
C1588      C1589   1.404       .  A
C1589      C1590   1.397       .  A
C1589      H1593   1.084       .  S
C1590      O1594   1.371       .  S
O1592      H1596   0.992       .  S
O1594      H1595   0.992       .  S
C1597      C1598   1.403       .  A
C1597      C1602   1.414       .  A
C1598      C1599   1.395       .  A
C1598      H1603   1.083       .  S
C1599      C1600   1.414       .  A
C1599      O1604   1.372       .  S
C1600      C1601   1.402       .  A
C1601      C1602   1.391       .  A
C1601      H1605   1.084       .  S
C1602      O1606   1.370       .  S
O1604      H1608   0.992       .  S
O1606      H1607   0.992       .  S
C1609      C1610   1.406       .  A
C1609      C1614   1.415       .  A
C1610      C1611   1.401       .  A
C1610      H1615   1.083       .  S
C1611      C1612   1.416       .  A
C1611      O1616   1.371       .  S
C1612      C1613   1.406       .  A
C1613      C1614   1.401       .  A
C1613      H1617   1.083   1_455  S
C1614      O1618   1.371   1_455  S
O1616      H1620   0.993       .  S
O1618      H1619   0.992       .  S
C1621      C1622   1.409       .  A
C1621      C1626   1.413       .  A
C1622      C1623   1.405       .  A
C1622      H1627   1.083       .  S
C1623      C1624   1.414       .  A
C1623      O1628   1.372       .  S
C1624      C1625   1.408       .  A
C1625      C1626   1.400       .  A
C1625      H1629   1.082       .  S
C1626      O1630   1.371       .  S
O1628      H1632   0.992       .  S
O1630      H1631   0.992       .  S
C1633      C1634   1.408       .  A
C1633      C1638   1.412       .  A
C1634      C1635   1.401       .  A
C1634      H1639   1.083       .  S
C1635      C1636   1.413       .  A
C1635      O1640   1.372       .  S
C1636      C1637   1.409       .  A
C1637      C1638   1.401       .  A
C1637      H1641   1.083       .  S
C1638      O1642   1.371       .  S
O1640      H1644   0.992       .  S
O1642      H1643   0.992       .  S
C1645      C1646   1.401   1_545  A
C1645      C1650   1.410   1_545  A
C1646      C1647   1.390       .  A
C1646      H1651   1.083   1_465  S
C1647      C1648   1.412       .  A
C1647      O1652   1.371   1_455  S
C1648      C1649   1.404       .  A
C1649      C1650   1.398       .  A
C1649      H1653   1.083       .  S
C1650      O1654   1.371   1_565  S
O1652      H1656   0.992       .  S
O1654      H1655   0.992       .  S
C1657      C1658   1.402       .  A
C1657      C1662   1.406       .  A
C1658      C1659   1.393       .  A
C1658      H1663   1.084       .  S
C1659      C1660   1.413       .  A
C1659      O1664   1.372       .  S
C1660      C1661   1.405       .  A
C1661      C1662   1.393       .  A
C1661      H1665   1.083       .  S
C1662      O1666   1.372       .  S
O1664      H1668   0.992       .  S
O1666      H1667   0.992       .  S
C1669      C1670   1.406       .  A
C1669      C1674   1.413       .  A
C1670      C1671   1.393       .  A
C1670      H1675   1.083       .  S
C1671      C1672   1.410       .  A
C1671      O1676   1.372       .  S
C1672      C1673   1.403       .  A
C1673      C1674   1.392       .  A
C1673      H1677   1.083       .  S
C1674      O1678   1.372       .  S
O1676      H1680   0.992       .  S
O1678      H1679   0.992       .  S
C1681      C1682   1.409       .  A
C1681      C1686   1.414       .  A
C1682      C1683   1.405       .  A
C1682      H1687   1.083       .  S
C1683      C1684   1.414       .  A
C1683      O1688   1.371       .  S
C1684      C1685   1.410       .  A
C1685      C1686   1.406       .  A
C1685      H1689   1.083       .  S
C1686      O1690   1.372       .  S
O1688      H1692   0.992       .  S
O1690      H1691   0.992       .  S
C1693      C1694   1.408       .  A
C1693      C1698   1.414       .  A
C1694      C1695   1.403       .  A
C1694      H1699   1.083       .  S
C1695      C1696   1.415       .  A
C1695      O1700   1.372       .  S
C1696      C1697   1.410       .  A
C1697      C1698   1.406       .  A
C1697      H1701   1.083       .  S
C1698      O1702   1.371       .  S
O1700      H1704   0.992       .  S
O1702      H1703   0.992       .  S
C1705      C1706   1.403       .  A
C1705      C1710   1.409       .  A
C1706      C1707   1.398       .  A
C1706      H1711   1.084       .  S
C1707      C1708   1.414       .  A
C1707      O1712   1.371       .  S
C1708      C1709   1.407       .  A
C1709      C1710   1.394       .  A
C1709      H1713   1.083       .  S
C1710      O1714   1.372       .  S
O1712      H1716   0.992       .  S
O1714      H1715   0.993       .  S
C1717      C1718   1.403       .  A
C1717      C1722   1.417       .  A
C1718      C1719   1.392       .  A
C1718      H1723   1.083       .  S
C1719      C1720   1.410       .  A
C1719      O1724   1.372       .  S
C1720      C1721   1.401       .  A
C1721      C1722   1.394       .  A
C1721      H1725   1.084       .  S
C1722      O1726   1.372       .  S
O1724      H1728   0.992       .  S
O1726      H1727   0.992       .  S
C1729      C1730   1.410       .  A
C1729      C1734   1.413       .  A
C1730      C1731   1.407       .  A
C1730      H1735   1.083       .  S
C1731      C1732   1.414       .  A
C1731      O1736   1.372       .  S
C1732      C1733   1.408       .  A
C1733      C1734   1.401       .  A
C1733      H1737   1.083       .  S
C1734      O1738   1.371       .  S
O1736      H1740   0.992       .  S
O1738      H1739   0.992       .  S
C1741      C1742   1.407       .  A
C1741      C1746   1.415       .  A
C1742      C1743   1.401       .  A
C1742      H1747   1.083       .  S
C1743      C1744   1.415       .  A
C1743      O1748   1.372       .  S
C1744      C1745   1.405       .  A
C1745      C1746   1.401       .  A
C1745      H1749   1.083       .  S
C1746      O1750   1.370       .  S
O1748      H1752   0.992       .  S
O1750      H1751   0.992       .  S
C1753      C1754   1.405       .  A
C1753      C1758   1.410       .  A
C1754      C1755   1.393       .  A
C1754      H1759   1.083       .  S
C1755      C1756   1.411       .  A
C1755      O1760   1.372       .  S
C1756      C1757   1.406       .  A
C1757      C1758   1.391       .  A
C1757      H1761   1.083       .  S
C1758      O1762   1.372       .  S
O1760      H1764   0.993       .  S
O1762      H1763   0.992       .  S
C1765      C1766   1.404       .  A
C1765      C1770   1.412       .  A
C1766      C1767   1.394       .  A
C1766      H1771   1.083       .  S
C1767      C1768   1.408       .  A
C1767      O1772   1.372       .  S
C1768      C1769   1.403       .  A
C1769      C1770   1.397       .  A
C1769      H1773   1.084       .  S
C1770      O1774   1.372       .  S
O1772      H1776   0.992       .  S
O1774      H1775   0.992       .  S
C1777      C1778   1.406       .  A
C1777      C1782   1.417       .  A
C1778      C1779   1.402       .  A
C1778      H1783   1.083       .  S
C1779      C1780   1.416       .  A
C1779      O1784   1.371       .  S
C1780      C1781   1.406       .  A
C1781      C1782   1.403       .  A
C1781      H1785   1.083       .  S
C1782      O1786   1.372       .  S
O1784      H1788   0.992       .  S
O1786      H1787   0.993       .  S
C1789      C1790   1.409       .  A
C1789      C1794   1.414       .  A
C1790      C1791   1.406       .  A
C1790      H1795   1.083       .  S
C1791      C1792   1.415       .  A
C1791      O1796   1.371       .  S
C1792      C1793   1.407       .  A
C1793      C1794   1.402       .  A
C1793      H1797   1.083       .  S
C1794      O1798   1.372       .  S
O1796      H1800   0.992       .  S
O1798      H1799   0.992       .  S
C1801      C1802   1.407       .  A
C1801      C1806   1.415       .  A
C1802      C1803   1.399       .  A
C1802      H1807   1.083       .  S
C1803      C1804   1.409       .  A
C1803      O1808   1.372       .  S
C1804      C1805   1.403       .  A
C1805      C1806   1.395       .  A
C1805      H1809   1.084       .  S
C1806      O1810   1.372       .  S
O1808      H1812   0.992       .  S
O1810      H1811   0.992       .  S
C1813      C1814   1.403       .  A
C1813      C1818   1.405       .  A
C1814      C1815   1.401       .  A
C1814      H1819   1.084       .  S
C1815      C1816   1.414       .  A
C1815      O1820   1.371       .  S
C1816      C1817   1.409       .  A
C1817      C1818   1.392       .  A
C1817      H1821   1.083       .  S
C1818      O1822   1.372       .  S
O1820      H1824   0.992       .  S
O1822      H1823   0.992       .  S
C1825      C1826   1.407       .  A
C1825      C1830   1.415       .  A
C1826      C1827   1.402       .  A
C1826      H1831   1.083       .  S
C1827      C1828   1.415       .  A
C1827      O1832   1.371       .  S
C1828      C1829   1.405       .  A
C1829      C1830   1.399       .  A
C1829      H1833   1.083       .  S
C1830      O1834   1.371       .  S
O1832      H1836   0.992       .  S
O1834      H1835   0.992       .  S
C1837      C1838   1.406       .  A
C1837      C1842   1.413       .  A
C1838      C1839   1.404       .  A
C1838      H1843   1.083       .  S
C1839      C1840   1.416       .  A
C1839      O1844   1.372       .  S
C1840      C1841   1.405       .  A
C1841      C1842   1.400       .  A
C1841      H1845   1.083       .  S
C1842      O1846   1.371       .  S
O1844      H1848   0.992       .  S
O1846      H1847   0.992       .  S
C1849      C1850   1.401       .  A
C1849      C1854   1.407       .  A
C1850      C1851   1.389       .  A
C1850      H1855   1.084       .  S
C1851      C1852   1.414       .  A
C1851      O1856   1.372       .  S
C1852      C1853   1.406       .  A
C1853      C1854   1.396       .  A
C1853      H1857   1.083       .  S
C1854      O1858   1.372       .  S
O1856      H1860   0.993       .  S
O1858      H1859   0.992       .  S
C1861      C1862   1.398       .  A
C1861      C1866   1.404       .  A
C1862      C1863   1.391       .  A
C1862      H1867   1.084       .  S
C1863      C1864   1.412       .  A
C1863      O1868   1.370       .  S
C1864      C1865   1.407       .  A
C1865      C1866   1.388       .  A
C1865      H1869   1.082       .  S
C1866      O1870   1.373       .  S
O1868      H1872   0.993       .  S
O1870      H1871   0.991       .  S
C1873      C1874   1.406       .  A
C1873      C1878   1.414   1_565  A
C1874      C1875   1.402       .  A
C1874      H1879   1.083       .  S
C1875      C1876   1.415       .  A
C1875      O1880   1.370       .  S
C1876      C1877   1.406   1_565  A
C1877      C1878   1.399       .  A
C1877      H1881   1.083       .  S
C1878      O1882   1.370       .  S
O1880      H1884   0.992       .  S
O1882      H1883   0.992       .  S
C1885      C1886   1.405       .  A
C1885      C1890   1.414       .  A
C1886      C1887   1.404       .  A
C1886      H1891   1.083       .  S
C1887      C1888   1.414       .  A
C1887      O1892   1.372       .  S
C1888      C1889   1.404       .  A
C1889      C1890   1.398       .  A
C1889      H1893   1.084       .  S
C1890      O1894   1.371       .  S
O1892      H1896   0.992       .  S
O1894      H1895   0.991       .  S
C1897      C1898   1.409       .  A
C1897      C1902   1.413       .  A
C1898      C1899   1.403       .  A
C1898      H1903   1.083       .  S
C1899      C1900   1.414       .  A
C1899      O1904   1.372       .  S
C1900      C1901   1.410       .  A
C1901      C1902   1.404       .  A
C1901      H1905   1.083       .  S
C1902      O1906   1.371       .  S
O1904      H1908   0.992       .  S
O1906      H1907   0.992       .  S
C1909      C1910   1.406   1_565  A
C1909      C1914   1.408       .  A
C1910      C1911   1.393   1_556  A
C1910      H1915   1.083       .  S
C1911      C1912   1.408   1_545  A
C1911      O1916   1.371       .  S
C1912      C1913   1.406       .  A
C1913      C1914   1.390   1_554  A
C1913      H1917   1.083       .  S
C1914      O1918   1.372       .  S
O1916      H1920   0.992       .  S
O1918      H1919   0.992       .  S
C1921      C1922   1.405       .  A
C1921      C1926   1.413       .  A
C1922      C1923   1.392       .  A
C1922      H1927   1.083       .  S
C1923      C1924   1.407       .  A
C1923      O1928   1.373       .  S
C1924      C1925   1.398       .  A
C1925      C1926   1.391       .  A
C1925      H1929   1.084       .  S
C1926      O1930   1.371       .  S
O1928      H1932   0.992       .  S
O1930      H1931   0.992       .  S
C1933      C1934   1.408       .  A
C1933      C1938   1.412       .  A
C1934      C1935   1.394       .  A
C1934      H1939   1.083       .  S
C1935      C1936   1.404       .  A
C1935      O1940   1.372       .  S
C1936      C1937   1.401       .  A
C1937      C1938   1.390       .  A
C1937      H1941   1.084       .  S
C1938      O1942   1.372       .  S
O1940      H1944   0.992       .  S
O1942      H1943   0.991       .  S
C1945      C1946   1.405       .  A
C1945      C1950   1.418   1_565  A
C1946      C1947   1.404       .  A
C1946      H1951   1.083       .  S
C1947      C1948   1.417       .  A
C1947      O1952   1.371       .  S
C1948      C1949   1.407   1_565  A
C1949      C1950   1.406       .  A
C1949      H1953   1.083       .  S
C1950      O1954   1.372       .  S
O1952      H1956   0.992       .  S
O1954      H1955   0.992       .  S
C1957      C1958   1.409       .  A
C1957      C1962   1.413       .  A
C1958      C1959   1.404       .  A
C1958      H1963   1.083       .  S
C1959      C1960   1.412       .  A
C1959      O1964   1.371       .  S
C1960      C1961   1.409       .  A
C1961      C1962   1.402       .  A
C1961      H1965   1.083       .  S
C1962      O1966   1.371       .  S
O1964      H1968   0.992       .  S
O1966      H1967   0.992       .  S
C1969      C1970   1.409       .  A
C1969      C1974   1.416       .  A
C1970      C1971   1.408       .  A
C1970      H1975   1.083       .  S
C1971      C1972   1.415       .  A
C1971      O1976   1.372       .  S
C1972      C1973   1.406       .  A
C1973      C1974   1.405       .  A
C1973      H1977   1.083       .  S
C1974      O1978   1.372       .  S
O1976      H1980   0.992       .  S
O1978      H1979   0.991       .  S
C1981      C1982   1.406   1_565  A
C1981      C1986   1.411       .  A
C1982      C1983   1.397   1_556  A
C1982      H1987   1.083       .  S
C1983      C1984   1.413   1_545  A
C1983      O1988   1.372       .  S
C1984      C1985   1.403       .  A
C1985      C1986   1.391   1_554  A
C1985      H1989   1.083       .  S
C1986      O1990   1.371       .  S
O1988      H1992   0.993       .  S
O1990      H1991   0.993       .  S
C1993      C1994   1.405       .  A
C1993      C1998   1.410       .  A
C1994      C1995   1.393       .  A
C1994      H1999   1.083       .  S
C1995      C1996   1.407       .  A
C1995      O2000   1.372       .  S
C1996      C1997   1.402       .  A
C1997      C1998   1.392       .  A
C1997      H2001   1.084       .  S
C1998      O2002   1.371       .  S
O2000      H2004   0.992       .  S
O2002      H2003   0.992       .  S
C2005      C2006   1.407       .  A
C2005      C2010   1.408       .  A
C2006      C2007   1.398       .  A
C2006      H2011   1.084       .  S
C2007      C2008   1.407       .  A
C2007      O2012   1.372       .  S
C2008      C2009   1.400       .  A
C2009      C2010   1.391       .  A
C2009      H2013   1.084       .  S
C2010      O2014   1.371       .  S
O2012      H2016   0.992       .  S
O2014      H2015   0.993       .  S
C2017      C2018   1.406   1_556  A
C2017      C2022   1.414       .  A
C2018      C2019   1.399       .  A
C2018      H2023   1.083       .  S
C2019      C2020   1.413       .  A
C2019      O2024   1.370       .  S
C2020      C2021   1.407   1_554  A
C2021      C2022   1.400       .  A
C2021      H2025   1.083       .  S
C2022      O2026   1.370       .  S
O2024      H2028   0.991       .  S
O2026      H2027   0.990       .  S
C2029      C2030   1.409       .  A
C2029      C2034   1.412       .  A
C2030      C2031   1.404       .  A
C2030      H2035   1.083       .  S
C2031      C2032   1.413       .  A
C2031      O2036   1.371       .  S
C2032      C2033   1.410       .  A
C2033      C2034   1.403       .  A
C2033      H2037   1.083       .  S
C2034      O2038   1.371       .  S
O2036      H2040   0.992       .  S
O2038      H2039   0.992       .  S
C2041      C2042   1.406       .  A
C2041      C2046   1.416       .  A
C2042      C2043   1.401       .  A
C2042      H2047   1.083       .  S
C2043      C2044   1.417       .  A
C2043      O2048   1.372       .  S
C2044      C2045   1.403       .  A
C2045      C2046   1.399       .  A
C2045      H2049   1.083       .  S
C2046      O2050   1.369       .  S
O2048      H2052   0.992       .  S
O2050      H2051   0.991       .  S
C2053      C2054   1.407   1_554  A
C2053      C2058   1.411       .  A
C2054      C2055   1.395       .  A
C2054      H2059   1.083       .  S
C2055      C2056   1.410   1_456  A
C2055      O2060   1.370       .  S
C2056      C2057   1.408   1_655  A
C2057      C2058   1.397       .  A
C2057      H2061   1.083       .  S
C2058      O2062   1.372       .  S
O2060      H2064   0.992   1_455  S
O2062      H2063   0.993       .  S
C2065      C2066   1.400       .  A
C2065      C2070   1.408       .  A
C2066      C2067   1.395       .  A
C2066      H2071   1.084       .  S
C2067      C2068   1.415       .  A
C2067      O2072   1.371       .  S
C2068      C2069   1.407       .  A
C2069      C2070   1.396       .  A
C2069      H2073   1.083       .  S
C2070      O2074   1.373       .  S
O2072      H2076   0.992       .  S
O2074      H2075   0.992       .  S
C2077      C2078   1.406       .  A
C2077      C2082   1.413       .  A
C2078      C2079   1.394       .  A
C2078      H2083   1.083       .  S
C2079      C2080   1.410       .  A
C2079      O2084   1.372       .  S
C2080      C2081   1.404       .  A
C2081      C2082   1.400       .  A
C2081      H2085   1.084       .  S
C2082      O2086   1.371       .  S
O2084      H2088   0.992       .  S
O2086      H2087   0.992       .  S
C2089      C2090   1.409   1_554  A
C2089      C2094   1.412       .  A
C2090      C2091   1.402       .  A
C2090      H2095   1.083       .  S
C2091      C2092   1.410   1_556  A
C2091      O2096   1.371       .  S
C2092      C2093   1.410       .  A
C2093      C2094   1.405       .  A
C2093      H2097   1.083       .  S
C2094      O2098   1.371       .  S
O2096      H2100   0.992       .  S
O2098      H2099   0.991       .  S
C2101      C2102   1.406       .  A
C2101      C2106   1.415       .  A
C2102      C2103   1.400       .  A
C2102      H2107   1.083       .  S
C2103      C2104   1.415       .  A
C2103      O2108   1.370       .  S
C2104      C2105   1.409       .  A
C2105      C2106   1.408       .  A
C2105      H2109   1.083       .  S
C2106      O2110   1.370       .  S
O2108      H2112   0.992       .  S
O2110      H2111   0.992       .  S
C2113      C2114   1.410       .  A
C2113      C2118   1.414       .  A
C2114      C2115   1.404       .  A
C2114      H2119   1.083       .  S
C2115      C2116   1.414       .  A
C2115      O2120   1.372       .  S
C2116      C2117   1.410       .  A
C2117      C2118   1.405       .  A
C2117      H2121   1.083       .  S
C2118      O2122   1.371       .  S
O2120      H2124   0.993       .  S
O2122      H2123   0.992       .  S
C2125      C2126   1.403   1_554  A
C2125      C2130   1.409       .  A
C2126      C2127   1.391       .  A
C2126      H2131   1.084       .  S
C2127      C2128   1.411       .  A
C2127      O2132   1.370       .  S
C2128      C2129   1.404   1_556  A
C2129      C2130   1.396       .  A
C2129      H2133   1.083       .  S
C2130      O2134   1.371       .  S
O2132      H2136   0.993       .  S
O2134      H2135   0.993       .  S
C2137      C2138   1.405       .  A
C2137      C2142   1.407       .  A
C2138      C2139   1.399       .  A
C2138      H2143   1.084       .  S
C2139      C2140   1.414       .  A
C2139      O2144   1.370       .  S
C2140      C2141   1.404       .  A
C2141      C2142   1.392       .  A
C2141      H2145   1.083       .  S
C2142      O2146   1.369       .  S
O2144      H2148   0.992       .  S
O2146      H2147   0.992       .  S
C2149      C2150   1.402       .  A
C2149      C2154   1.406       .  A
C2150      C2151   1.396       .  A
C2150      H2155   1.084       .  S
C2151      C2152   1.413       .  A
C2151      O2156   1.371       .  S
C2152      C2153   1.410       .  A
C2153      C2154   1.396       .  A
C2153      H2157   1.083       .  S
C2154      O2158   1.372       .  S
O2156      H2160   0.992       .  S
O2158      H2159   0.992       .  S
