geometry optimzed in LAMMPS
_audit_creation_date              2020-11-30 
_audit_creation_method            'lammps2cif' 
_symmetry_space_group_name_H-M    'P1' 
_symmetry_Int_Tables_number       1 
_symmetry_cell_setting            triclinic 
loop_ 
_symmetry_equiv_pos_as_xyz 
  x,y,z 
_cell_length_a                    27.64212304 
_cell_length_b                    27.75623456871644 
_cell_length_c                    25.33030162982273 
_cell_angle_alpha                 89.80171450260644 
_cell_angle_beta                  89.96376067893179 
_cell_angle_gamma                 89.5958878082594 
loop_ 
_atom_site_label 
_atom_site_type_symbol 
_atom_site_fract_x 
_atom_site_fract_y 
_atom_site_fract_z 
_atom_site_charge 
N1          N  0.95099444  0.05979668  0.01652058    -0.37400
N2          N  0.95005749  0.95635265  0.00109120    -0.58000
N3          N  0.05236980  0.95875848  0.97829992    -0.37400
N4          N  0.05352650  0.06243162  0.98821622    -0.58000
C5          C  0.90283186  0.05118031  0.01391123     0.26200
C6          C  0.95740671  0.10742823  0.00742440     0.26200
C7          C  0.04081921  0.91393864  0.96221958     0.26100
C8          C  0.09527093  0.96963599  0.95593361     0.26100
C9          C  0.90687803  0.96266683  0.02508771     0.34800
C10         C  0.96096364  0.90900059  0.00539017     0.34800
C11         C  0.04747700  0.10782489  0.00649230     0.34800
C12         C  0.10178064  0.05358688  0.98720760     0.34800
C13         C  0.87845118  0.09380351  0.00273352    -0.22700
C14         C  0.91263925  0.12932508  0.99961716    -0.22700
C15         C  0.07631341  0.89644694  0.92850401    -0.22700
C16         C  0.11080480  0.93168448  0.92457290    -0.22700
C17         C  0.89039690  0.91918054  0.04500178    -0.23800
C18         C  0.92477969  0.88509624  0.03252979    -0.23800
C19         C  0.09222395  0.12825458  0.01622676    -0.23800
C20         C  0.12656833  0.09369121  0.00469033    -0.23800
C21         C  0.88039373  0.00636936  0.02446967    -0.19100
C22         C  0.00221291  0.13192536  0.01026758    -0.19100
C23         C  0.12319848  0.01034538  0.96841853    -0.19100
C24         C  0.00154861  0.88699059  0.98159181    -0.19100
H25         H  0.83992570  0.09921303  0.99786005     0.13800
H26         H  0.90476762  0.16701912  0.99283876     0.13800
H27         H  0.07783933  0.86145433  0.90982893     0.13800
H28         H  0.14420141  0.92917023  0.90238041     0.13800
H29         H  0.85687654  0.91264960  0.06584012     0.12100
H30         H  0.92309924  0.84707533  0.04190026     0.12100
H31         H  0.09958126  0.16428598  0.03004584     0.12100
H32         H  0.16528573  0.09792471  0.00839361     0.12100
H33         H  0.97743938  0.03573641  0.02960295     0.25300
H34         H  0.03577363  0.97768797  0.00882419     0.25300
N35         N  0.94481042  0.04625114  0.48511669    -0.37400
N36         N  0.94321531  0.94239890  0.50216175    -0.58000
N37         N  0.04577549  0.94637219  0.52693700    -0.37400
N38         N  0.04735701  0.05006027  0.50915632    -0.58000
C39         C  0.90033642  0.03564774  0.46623250     0.26200
C40         C  0.95469252  0.09190901  0.46960056     0.26200
C41         C  0.03683779  0.89995737  0.54016667     0.26100
C42         C  0.09143014  0.95605277  0.54277622     0.26100
C43         C  0.89570362  0.94870836  0.49150968     0.34800
C44         C  0.94982791  0.89519637  0.51347071     0.34800
C45         C  0.04011722  0.09766370  0.50087435     0.34800
C46         C  0.09445933  0.04421285  0.52198542     0.34800
C47         C  0.88205321  0.07478073  0.43828866    -0.22700
C48         C  0.91624239  0.11019863  0.44042682    -0.22700
C49         C  0.07709505  0.88022887  0.56502515    -0.22700
C50         C  0.11144153  0.91549974  0.56662776    -0.22700
C51         C  0.87182696  0.90515138  0.49643394    -0.23800
C52         C  0.90624484  0.87112920  0.50925548    -0.23800
C53         C  0.08273523  0.12240100  0.50963066    -0.23800
C54         C  0.11737284  0.08849506  0.52160362    -0.23800
C55         C  0.87404523  0.99290656  0.47582257    -0.19100
C56         C  0.99648081  0.11868228  0.48238551    -0.19100
C57         C  0.11680566  0.99966234  0.53495944    -0.19100
C58         C  0.99425222  0.87378751  0.52909791    -0.19100
H59         H  0.84743823  0.07759548  0.41850992     0.13800
H60         H  0.91306113  0.14553286  0.42249354     0.13800
H61         H  0.08137967  0.84402793  0.58043902     0.13800
H62         H  0.14721635  0.91166914  0.58355686     0.13800
H63         H  0.83375189  0.89815726  0.49085145     0.12100
H64         H  0.89950322  0.83324113  0.51580722     0.12100
H65         H  0.08887684  0.16073943  0.50663422     0.12100
H66         H  0.15491486  0.09614644  0.52967522     0.12100
H67         H  0.96430434  0.02597544  0.51238994     0.25300
H68         H  0.02437558  0.96818042  0.50313664     0.25300
Zr69       Zr  0.93144811  0.44381345  0.99049521     2.17500
O70         O  0.88819017  0.38242355  0.94071963    -0.52200
O71         O  0.86757082  0.44159427  0.05763753    -0.75400
O72         O  0.95662140  0.36122552  0.00994424    -0.82100
O73         O  0.86582946  0.54276036  0.91414896    -0.83900
O74         O  0.03109634  0.36071039  0.04809077    -0.79500
O75         O  0.86427114  0.46255080  0.93205102    -0.91200
O76         O  0.88402825  0.49889995  0.11862408    -0.77100
O77         O  0.97551868  0.45400638  0.07061198    -0.86600
O78         O  0.91519547  0.52412795  0.01833010    -0.86300
O79         O  0.01503895  0.43152066  0.96658366    -0.73100
O80         O  0.95735697  0.49526195  0.91946556    -0.85200
Zr81       Zr  0.06908209  0.57614416  0.00649688     2.26400
Zr82       Zr  0.05908477  0.44379856  0.04732950     2.06300
Zr83       Zr  0.94147160  0.57540409  0.94859590     2.10000
Zr84       Zr  0.96025472  0.53484618  0.09745224     1.78800
O85         O  0.94136368  0.60096714  0.85660008    -0.94000
O86         O  0.97466713  0.49547116  0.18223182    -0.41800
O87         O  0.98572477  0.58783982  0.02864043    -0.78400
O88         O  0.04395393  0.52423505  0.07733178    -0.97100
O89         O  0.08488947  0.49597884  0.97839277    -0.90400
O90         O  0.02493027  0.56585690  0.92641786    -0.93300
C91         C  0.85663489  0.46689791  0.09847856     1.00500
C92         C  0.84601873  0.50094654  0.91164280     1.13400
C93         C  0.99358917  0.33947037  0.02973002     1.04200
O94         O  0.06559825  0.41976904  0.13961129    -0.95400
O95         O  0.13752531  0.47513912  0.07538250    -0.91200
O96         O  0.14264838  0.55459256  0.05398970    -0.84300
C97         C  0.15981090  0.51579839  0.07469860     1.10800
O98         O  0.99979395  0.44103587  0.82958194    -0.97400
Zr99       Zr  0.04132809  0.48555693  0.89878262     1.88900
O100        O  0.13216936  0.58066325  0.93991085    -0.74000
O101        O  0.12481291  0.39137625  0.01805403    -0.53300
O102        O  0.08672456  0.41339861  0.87433371    -0.98000
O103        O  0.04617266  0.52989178  0.81558768    -0.55200
O104        O  0.12492253  0.51013251  0.89570231    -0.74600
C105        C  0.14910769  0.54679054  0.91087300     0.97800
O106        O  0.09755668  0.64022849  0.06476684    -0.63400
O107        O  0.87687350  0.63075981  0.97431096    -0.58200
O108        O  0.04653881  0.65766164  0.98091218    -0.94900
O109        O  0.96807743  0.65819108  0.95395805    -0.93300
O110        O  0.90502477  0.60172508  0.11473657    -0.93600
O111        O  0.99239334  0.59174389  0.16123638    -0.92400
C112        C  0.00752518  0.67942653  0.96651937     1.16600
H113        H  0.88104305  0.52979430  0.02364441     0.32600
H114        H  0.06258487  0.53071242  0.10875862     0.43400
H115        H  0.03459517  0.58959380  0.90064177     0.36900
H116        H  0.02038246  0.39938298  0.95329580     0.33400
H117        H  0.95116912  0.51065526  0.20668459     0.25200
H118        H  0.12727982  0.36583525  0.04532874     0.31200
H119        H  0.10766936  0.42370127  0.84469675     0.37100
H120        H  0.89030064  0.59424091  0.14942966     0.31500
H121        H  0.85892036  0.63767950  0.94130256     0.30400
H122        H  0.90913268  0.61597105  0.85123403     0.32100
H123        H  0.07019553  0.51136214  0.79481438     0.31100
H124        H  0.01567657  0.61133596  0.14082116     0.35000
H125        H  0.06845128  0.65923104  0.07447485     0.27800
H126        H  0.87359822  0.36055543  0.96719537     0.32000
H127        H  0.02313118  0.43758402  0.80015229     0.34900
H128        H  0.85438453  0.61126801  0.99587303     0.27500
H129        H  0.10665232  0.62431043  0.09838822     0.40300
H130        H  0.07276846  0.44991611  0.15876938     0.30400
H131        H  0.96273527  0.46218300  0.17776212     0.38000
H132        H  0.06308209  0.56029556  0.82354764     0.29900
H133        H  0.11208503  0.37489867  0.98641575     0.29900
H134        H  0.91317930  0.36293879  0.92241149     0.30200
Zr135      Zr  0.06599535  0.56357383  0.48482477     2.17500
O136        O  0.09352129  0.62336854  0.42088074    -0.52200
O137        O  0.13510853  0.56903301  0.54408427    -0.75400
O138        O  0.04380298  0.64530991  0.51134501    -0.82100
O139        O  0.13279062  0.46316393  0.41568210    -0.83900
O140        O  0.97009016  0.64415943  0.55130162    -0.79500
O141        O  0.13605575  0.54365570  0.43176106    -0.91200
O142        O  0.12345251  0.51497221  0.61055904    -0.77100
O143        O  0.02720923  0.55460707  0.56835434    -0.86600
O144        O  0.08577344  0.48432724  0.51450848    -0.86300
O145        O  0.98118957  0.57361859  0.46720864    -0.73100
O146        O  0.03756906  0.50952038  0.41783854    -0.85200
Zr147      Zr  0.93342741  0.42938211  0.51630216     2.26400
Zr148      Zr  0.94222792  0.56173371  0.55110110     2.06300
Zr149      Zr  0.05677813  0.43031272  0.44927734     2.10000
Zr150      Zr  0.04690242  0.47536314  0.59744551     1.78800
O151        O  0.06476616  0.40297364  0.35842499    -0.94000
O152        O  0.03788926  0.51718732  0.68115985    -0.41800
O153        O  0.01818025  0.41948927  0.53306750    -0.78400
O154        O  0.96163568  0.48300531  0.58361208    -0.97100
O155        O  0.91374684  0.50785206  0.48564543    -0.90400
O156        O  0.97195244  0.43849236  0.43240438    -0.93300
C157        C  0.14872818  0.54621395  0.58575498     1.00500
C158        C  0.15392012  0.50436857  0.41336272     1.13400
C159        C  0.00738913  0.66611907  0.53355847     1.04200
O160        O  0.93655388  0.58582754  0.64327335    -0.95400
O161        O  0.86495880  0.53068154  0.58256511    -0.91200
O162        O  0.86187054  0.45018646  0.56684995    -0.84300
C163        C  0.84381186  0.48952840  0.58490656     1.10800
O164        O  0.98067542  0.57057956  0.33233955    -0.97400
Zr165      Zr  0.95246604  0.51770916  0.40289823     1.88900
O166        O  0.86232583  0.42634347  0.46027096    -0.74000
O167        O  0.87633827  0.61437881  0.52254969    -0.53300
O168        O  0.89557042  0.58354002  0.38606022    -0.98000
O169        O  0.96028086  0.47590622  0.31883413    -0.55200
O170        O  0.87380491  0.48081996  0.39413641    -0.74600
C171        C  0.84832696  0.44986823  0.41928102     0.97800
O172        O  0.91373000  0.36623415  0.58008655    -0.63400
O173        O  0.11943452  0.37474071  0.47995135    -0.58200
O174        O  0.95188375  0.34811875  0.48740813    -0.94900
O175        O  0.02785159  0.34769300  0.45271525    -0.93300
O176        O  0.10498027  0.41115260  0.61589829    -0.93600
O177        O  0.02118745  0.42012828  0.66662548    -0.92400
C178        C  0.98917820  0.32645226  0.46832565     1.16600
H179        H  0.12026129  0.47947022  0.51782565     0.32600
H180        H  0.94496017  0.47700755  0.61654049     0.43400
H181        H  0.96088780  0.41451042  0.40763948     0.36900
H182        H  0.97477429  0.60577679  0.45408157     0.33400
H183        H  0.06682173  0.50705898  0.70144771     0.25200
H184        H  0.87402324  0.63966551  0.54993107     0.31200
H185        H  0.87539390  0.57244087  0.35625119     0.37100
H186        H  0.12316479  0.42234644  0.64716518     0.31500
H187        H  0.13622533  0.36398264  0.44748524     0.30400
H188        H  0.09186576  0.37946015  0.35926987     0.32100
H189        H  0.93795820  0.44824588  0.32106637     0.31100
H190        H  0.00263851  0.39508914  0.64784534     0.35000
H191        H  0.94464373  0.34908303  0.58693647     0.27800
H192        H  0.11129972  0.64779594  0.44146940     0.32000
H193        H  0.95549886  0.56958283  0.30456915     0.34900
H194        H  0.14333161  0.39509390  0.49832995     0.27500
H195        H  0.90709212  0.38320634  0.61366182     0.40300
H196        H  0.92633136  0.62007844  0.64221855     0.30400
H197        H  0.04363238  0.55156358  0.67288134     0.38000
H198        H  0.99303257  0.46129405  0.31969560     0.29900
H199        H  0.88883637  0.63118122  0.49086780     0.29900
H200        H  0.06379844  0.64002692  0.40853153     0.30200
Zr201      Zr  0.43320333  0.93228807  0.01337864     2.17500
O202        O  0.37040769  0.90535137  0.07417535    -0.52200
O203        O  0.42850446  0.86415768  0.95338353    -0.75400
O204        O  0.35207571  0.95540557  0.98401675    -0.82100
O205        O  0.53055695  0.86524304  0.08774571    -0.83900
O206        O  0.35525857  0.02988299  0.94664340    -0.79500
O207        O  0.45048693  0.86198284  0.06775394    -0.91200
O208        O  0.48472834  0.87584725  0.88902689    -0.77100
O209        O  0.44529232  0.97195833  0.93070766    -0.86600
O210        O  0.51355531  0.91213414  0.98674910    -0.86300
O211        O  0.42326481  0.01682406  0.03124167    -0.73100
O212        O  0.48564872  0.95948413  0.08260970    -0.85200
Zr213      Zr  0.57043473  0.06465898  0.98949513     2.26400
Zr214      Zr  0.43850585  0.05653627  0.94840768     2.06300
Zr215      Zr  0.56581521  0.94040609  0.05434691     2.10000
Zr216      Zr  0.52549572  0.95170642  0.90466560     1.78800
O217        O  0.58736954  0.94552157  0.14731718    -0.94000
O218        O  0.48702974  0.96121332  0.81872320    -0.41800
O219        O  0.57950432  0.98004403  0.97157302    -0.78400
O220        O  0.51857790  0.03682780  0.91966541    -0.97100
O221        O  0.49042285  0.08374161  0.01644609    -0.90400
O222        O  0.55788779  0.02455661  0.07193879    -0.93300
C223        C  0.45230030  0.85070939  0.91238398     1.00500
C224        C  0.48904242  0.84427297  0.08867219     1.13400
C225        C  0.33210737  0.99267265  0.96258868     1.04200
O226        O  0.41920786  0.06199791  0.85486380    -0.95400
O227        O  0.47101684  0.13420175  0.92008731    -0.91200
O228        O  0.55125135  0.13753864  0.93937480    -0.84300
C229        C  0.51215955  0.15576473  0.92005205     1.10800
O230        O  0.42872980  0.00728283  0.16763884    -0.97400
Zr231      Zr  0.47738851  0.04405539  0.09812350     1.88900
O232        O  0.57347009  0.13305620  0.04981842    -0.74000
O233        O  0.38418799  0.12270709  0.97168664    -0.53300
O234        O  0.40650726  0.09445155  0.11504605    -0.98000
O235        O  0.51908887  0.04889048  0.18281714    -0.55200
O236        O  0.50623911  0.12570482  0.10093386    -0.74600
C237        C  0.54190345  0.14965279  0.08242705     0.97800
O238        O  0.63558002  0.08389876  0.92787310    -0.63400
O239        O  0.62232897  0.87369422  0.04116055    -0.58200
O240        O  0.65059058  0.04570738  0.02365373    -0.94900
O241        O  0.64947291  0.96539294  0.04243889    -0.93300
O242        O  0.59032094  0.89298242  0.89169103    -0.93600
O243        O  0.58261764  0.97727721  0.83709925    -0.92400
C244        C  0.67148725  0.00544695  0.03469210     1.16600
H245        H  0.51836352  0.87777659  0.98343419     0.32600
H246        H  0.52578604  0.05377498  0.88721206     0.43400
H247        H  0.58133176  0.03481427  0.09760607     0.36900
H248        H  0.39068338  0.02338745  0.04312535     0.33400
H249        H  0.49837270  0.93298596  0.79825053     0.25200
H250        H  0.36067905  0.12490285  0.94227360     0.31200
H251        H  0.41544595  0.11431599  0.14589209     0.37100
H252        H  0.58129116  0.87541880  0.85923141     0.31500
H253        H  0.62743020  0.85967372  0.07674458     0.30400
H254        H  0.62308480  0.94262521  0.14782241     0.32100
H255        H  0.50022058  0.07306443  0.20297767     0.31100
H256        H  0.60987431  0.99126191  0.85707578     0.35000
H257        H  0.65370264  0.05332150  0.92302728     0.27800
H258        H  0.34719025  0.88694988  0.05251660     0.32000
H259        H  0.42255500  0.03282190  0.19402893     0.34900
H260        H  0.60384254  0.84903093  0.02169181     0.27500
H261        H  0.61941234  0.08905607  0.89342249     0.40300
H262        H  0.40081412  0.03234405  0.84727734     0.30400
H263        H  0.45229933  0.95491792  0.82508387     0.38000
H264        H  0.55006835  0.06524859  0.17548342     0.29900
H265        H  0.36520811  0.11079651  0.00215825     0.29900
H266        H  0.35270714  0.93490928  0.08481293     0.30200
Zr267      Zr  0.56237344  0.06468355  0.51495912     2.17500
O268        O  0.62337988  0.09591159  0.57517518    -0.52200
O269        O  0.56599691  0.13141745  0.45235466    -0.75400
O270        O  0.64439061  0.04198058  0.48920231    -0.82100
O271        O  0.46325088  0.13285770  0.58582235    -0.83900
O272        O  0.64291582  0.96891861  0.44884013    -0.79500
O273        O  0.54378035  0.13508330  0.56820760    -0.91200
O274        O  0.51174986  0.11800151  0.38655086    -0.77100
O275        O  0.55226124  0.02431134  0.43269471    -0.86600
O276        O  0.48238641  0.08339192  0.48638824    -0.86300
O277        O  0.57338417  0.98038889  0.53440582    -0.73100
O278        O  0.51005367  0.03745875  0.58457254    -0.85200
Zr279      Zr  0.42753357  0.93151094  0.49142856     2.26400
Zr280      Zr  0.56009885  0.93991621  0.45168322     2.06300
Zr281      Zr  0.43028347  0.05617459  0.55487239     2.10000
Zr282      Zr  0.47198595  0.04247522  0.40488935     1.78800
O283        O  0.41005581  0.05829399  0.64840451    -0.94000
O284        O  0.51251512  0.02710127  0.32107636    -0.41800
O285        O  0.41750912  0.01573775  0.47242332    -0.78400
O286        O  0.47999179  0.95792218  0.42162462    -0.97100
O287        O  0.50736729  0.91325776  0.51950956    -0.90400
O288        O  0.43847173  0.97208654  0.57371204    -0.93300
C289        C  0.54310087  0.14386681  0.41029048     1.00500
C290        C  0.50487120  0.15347281  0.58749293     1.13400
C291        C  0.66522555  0.00581023  0.46688833     1.04200
O292        O  0.57694260  0.93559436  0.35744113    -0.95400
O293        O  0.52877748  0.86045110  0.42668886    -0.91200
O294        O  0.44832535  0.85715208  0.44543181    -0.84300
C295        C  0.48764417  0.83866482  0.42710512     1.10800
O296        O  0.55612219  0.99140071  0.67721660    -0.97400
Zr297      Zr  0.51869297  0.95281839  0.60115722     1.88900
O298        O  0.42215886  0.86600374  0.55507942    -0.74000
O299        O  0.61643045  0.87577450  0.47637057    -0.53300
O300        O  0.59394455  0.91050855  0.62185979    -0.98000
O301        O  0.47571662  0.93769142  0.68383394    -0.55200
O302        O  0.49355097  0.86964173  0.59909476    -0.74600
C303        C  0.45577790  0.84728234  0.58354105     0.97800
O304        O  0.36569004  0.90712448  0.42818365    -0.63400
O305        O  0.37295452  0.12043170  0.53352958    -0.58200
O306        O  0.34613015  0.95287980  0.51906358    -0.94900
O307        O  0.34720894  0.02850250  0.55362689    -0.93300
O308        O  0.40772235  0.10036361  0.38554466    -0.93600
O309        O  0.41434408  0.01629106  0.33840345    -0.92400
C310        C  0.32526769  0.99026983  0.53868676     1.16600
H311        H  0.47731017  0.11763123  0.48203205     0.32600
H312        H  0.47326351  0.94036590  0.38962610     0.43400
H313        H  0.41469778  0.96188670  0.59932037     0.36900
H314        H  0.60595191  0.97447021  0.54670399     0.33400
H315        H  0.49969908  0.05235467  0.29710781     0.25200
H316        H  0.63963975  0.87347505  0.44667643     0.31200
H317        H  0.58421710  0.88384280  0.64557967     0.37100
H318        H  0.41912332  0.11837433  0.35414905     0.31500
H319        H  0.36662208  0.13687130  0.56750324     0.30400
H320        H  0.43889519  0.04467651  0.66636874     0.32100
H321        H  0.49429653  0.91130835  0.70095668     0.31100
H322        H  0.39221413  0.99450738  0.35762912     0.35000
H323        H  0.34635739  0.93657929  0.42096750     0.27800
H324        H  0.64659362  0.11387270  0.55289832     0.32000
H325        H  0.56751001  0.96502683  0.70062391     0.34900
H326        H  0.39163579  0.14397218  0.51246234     0.27500
H327        H  0.38318989  0.90147426  0.39462389     0.40300
H328        H  0.60645206  0.91532732  0.35479281     0.30400
H329        H  0.54664957  0.03624355  0.32689247     0.38000
H330        H  0.44476464  0.92250807  0.67389662     0.29900
H331        H  0.63543100  0.88890730  0.50609227     0.29900
H332        H  0.64153393  0.06734921  0.58812221     0.30200
O333        O  0.63784171  0.51054193  0.16480929    -0.76100
O334        O  0.64142788  0.43254748  0.19315895    -0.55000
C335        C  0.65970494  0.46968515  0.17093604     0.77600
O336        O  0.52051674  0.61631347  0.35491906    -0.60700
O337        O  0.44807196  0.62885696  0.31370890    -0.53700
C338        C  0.48304984  0.64247569  0.34405207     0.69600
O339        O  0.63110295  0.49580560  0.35556913    -0.75300
O340        O  0.64142977  0.42973139  0.30315403    -0.55800
C341        C  0.65535728  0.45893085  0.33915274     0.75600
O342        O  0.52179694  0.62520176  0.16387740    -0.60400
O343        O  0.44715720  0.63297003  0.20158303    -0.53500
C344        C  0.48316281  0.64947378  0.17456954     0.72200
Zr345      Zr  0.55676766  0.54518803  0.17685781     2.54700
O346        O  0.61670045  0.60794901  0.16419800    -0.81000
O347        O  0.55039967  0.53885001  0.08128403    -0.94400
Zr348      Zr  0.55475644  0.53698163  0.33448741     2.64700
O349        O  0.62139269  0.59216939  0.34995068    -0.99400
O350        O  0.54119520  0.52719149  0.42892218    -0.81400
O351        O  0.58924713  0.50939380  0.25413837    -0.84800
O352        O  0.52377927  0.57423124  0.25705321    -2.19500
O353        O  0.37838979  0.48268076  0.15231194    -0.68200
O354        O  0.36679972  0.55270368  0.19773836    -0.52700
C355        C  0.35266363  0.51938936  0.16579791     0.70600
O356        O  0.49487709  0.36000742  0.34555340    -0.61100
O357        O  0.56422870  0.35221551  0.29728016    -0.53100
C358        C  0.53286065  0.33660426  0.33038484     0.72400
O359        O  0.37594274  0.47110595  0.34545656    -0.72500
O360        O  0.36645943  0.54601231  0.30901549    -0.51100
C361        C  0.35102701  0.50944535  0.33570459     0.73800
O362        O  0.49489528  0.36902917  0.14685049    -0.67800
O363        O  0.56689623  0.35836955  0.18896162    -0.55000
C364        C  0.53354174  0.34456571  0.15741057     0.72200
Zr365      Zr  0.45677870  0.44601917  0.16934640     2.77500
O366        O  0.39691476  0.38291738  0.15707426    -0.98500
O367        O  0.46189697  0.45771561  0.07415789    -0.79400
Zr368      Zr  0.45549611  0.43769327  0.32699989     2.70100
O369        O  0.39486389  0.37464782  0.33203474    -0.80600
O370        O  0.46126669  0.44299366  0.42279846    -0.99700
Zr371      Zr  0.57083800  0.42607645  0.24779106     2.21500
Zr372      Zr  0.43859773  0.55913253  0.25467896     2.11100
O373        O  0.42344526  0.47433546  0.24966514    -2.48400
O374        O  0.48717047  0.40787963  0.24638592    -0.80400
O375        O  0.47227796  0.53021220  0.17329358    -0.72600
O376        O  0.53921907  0.45332204  0.33003561    -2.33600
O377        O  0.54061620  0.46201763  0.16884570    -2.29800
O378        O  0.47020411  0.52191626  0.33340315    -0.74400
H379        H  0.53044282  0.60824126  0.25890183     0.77600
H380        H  0.55405241  0.43657381  0.35933223     0.78700
H381        H  0.38921064  0.46793115  0.24874744     0.80900
H382        H  0.55611768  0.44874136  0.13789370     0.78600
H383        H  0.55984729  0.49792431  0.43873106     0.41600
H384        H  0.43300091  0.42485181  0.43602708     0.40600
H385        H  0.38482620  0.36965254  0.29494557     0.40200
H386        H  0.37084229  0.39030395  0.18268385     0.38200
H387        H  0.49420804  0.44507913  0.06421522     0.41300
H388        H  0.58394017  0.53261672  0.06923587     0.36100
H389        H  0.62790464  0.61548168  0.20034700     0.42200
H390        H  0.61511576  0.61985975  0.32611511     0.38600
H391        H  0.38241843  0.38943038  0.12200371     0.43500
H392        H  0.54317966  0.57208210  0.06917058     0.42300
H393        H  0.61578090  0.60490899  0.38592161     0.42400
H394        H  0.48950539  0.42261247  0.43230577     0.42800
O395        O  0.62345909  0.52128435  0.65889148    -0.76100
O396        O  0.63319701  0.44682255  0.69580218    -0.55000
C397        C  0.64882234  0.48344924  0.66944007     0.77600
O398        O  0.50294524  0.63386739  0.84870890    -0.60700
O399        O  0.43430865  0.64305177  0.79966860    -0.53700
C400        C  0.46504236  0.65775810  0.83372459     0.69600
O401        O  0.62608757  0.52620573  0.83593507    -0.75300
O402        O  0.63549605  0.45058867  0.80216094    -0.55800
C403        C  0.65144860  0.48818102  0.82645155     0.75600
O404        O  0.50124625  0.62733952  0.64432066    -0.60400
O405        O  0.43109251  0.63827005  0.68993298    -0.53500
C406        C  0.46299355  0.65177401  0.65626389     0.72200
Zr407      Zr  0.54125351  0.55149023  0.66767185     2.54700
O408        O  0.59838556  0.61389314  0.64255988    -0.81000
O409        O  0.53342722  0.53268259  0.57421137    -0.94400
Zr410      Zr  0.54456427  0.55768440  0.82570366     2.64700
O411        O  0.60459110  0.62109225  0.83418829    -0.99400
O412        O  0.54224205  0.54686680  0.92104442    -0.81400
O413        O  0.57526801  0.52217709  0.74731370    -0.84800
O414        O  0.51230309  0.58876625  0.74590787    -2.19500
O415        O  0.36535753  0.49443835  0.65046440    -0.68200
O416        O  0.35680365  0.56427613  0.69700353    -0.52700
C417        C  0.34189314  0.53283455  0.66405772     0.70600
O418        O  0.47736920  0.37618788  0.84492350    -0.61100
O419        O  0.55257787  0.36708801  0.80928548    -0.53100
C420        C  0.51599967  0.35145272  0.83597776     0.72400
O421        O  0.37028143  0.49679249  0.85491507    -0.72500
O422        O  0.36022855  0.56665608  0.80859368    -0.51100
C423        C  0.34622454  0.53498599  0.84225544     0.73800
O424        O  0.47400924  0.37205579  0.66443483    -0.67800
O425        O  0.54994680  0.36380712  0.69885520    -0.55000
C426        C  0.51272402  0.34749457  0.67384252     0.72200
Zr427      Zr  0.44127023  0.45292332  0.67467401     2.77500
O428        O  0.37672911  0.39361330  0.67381862    -0.98500
O429        O  0.44883986  0.44963280  0.57892091    -0.79400
Zr430      Zr  0.44627009  0.45738566  0.83202711     2.70100
O431        O  0.38331794  0.39889795  0.85077841    -0.80600
O432        O  0.46173575  0.46354076  0.92637669    -0.99700
Zr433      Zr  0.56118303  0.43752589  0.75105101     2.21500
Zr434      Zr  0.42848400  0.57026201  0.74929456     2.11100
O435        O  0.40987709  0.48673336  0.75327765    -2.48400
O436        O  0.47644314  0.42260926  0.75352491    -0.80400
O437        O  0.45731138  0.53637722  0.66890468    -0.72600
O438        O  0.53055295  0.47308328  0.83083578    -2.33600
O439        O  0.52609726  0.46737950  0.67026699    -2.29800
O440        O  0.46104866  0.54131755  0.83034024    -0.74400
H441        H  0.51775332  0.62307814  0.74437917     0.77600
H442        H  0.54620566  0.45922247  0.86147485     0.78700
H443        H  0.37536556  0.48157150  0.75448445     0.80900
H444        H  0.54028893  0.45153320  0.64003993     0.78600
H445        H  0.51071245  0.56083247  0.93186388     0.41600
H446        H  0.43076892  0.47508885  0.94158113     0.40600
H447        H  0.36679244  0.39431829  0.81650727     0.40200
H448        H  0.35358977  0.40463851  0.70115342     0.38200
H449        H  0.44093914  0.48270242  0.56676451     0.41300
H450        H  0.56688176  0.53404842  0.56031563     0.36100
H451        H  0.60309272  0.63284805  0.67518149     0.42200
H452        H  0.59276941  0.64766089  0.81130730     0.38600
H453        H  0.35964501  0.39885272  0.63991426     0.43500
H454        H  0.51708001  0.56125238  0.55870104     0.42300
H455        H  0.60067390  0.63325554  0.87065893     0.42400
H456        H  0.46464605  0.42974719  0.93867881     0.42800
C457        C  0.53899791  0.23169464  0.42524813    -0.14200
C458        C  0.54887071  0.19330828  0.39083118     0.08000
C459        C  0.55581184  0.20259533  0.33692816    -0.14200
C460        C  0.55274672  0.24978386  0.31765675    -0.14200
C461        C  0.54061373  0.28785803  0.35171675     0.08000
C462        C  0.53416959  0.27859379  0.40569028    -0.14200
H463        H  0.53226359  0.22496448  0.46677656     0.12000
H464        H  0.56241188  0.17325160  0.30971095     0.12000
H465        H  0.55753571  0.25628023  0.27577421     0.12000
H466        H  0.52483667  0.30753347  0.43250565     0.12000
C467        C  0.44215655  0.76910891  0.38604348    -0.14200
C468        C  0.48556170  0.78858969  0.40571193     0.08000
C469        C  0.52717511  0.75933285  0.40561435    -0.14200
C470        C  0.52559701  0.71201541  0.38673737    -0.14200
C471        C  0.48250089  0.69240658  0.36646206     0.08000
C472        C  0.44076356  0.72178856  0.36607504    -0.14200
H473        H  0.40939196  0.79072574  0.38540982     0.12000
H474        H  0.56108032  0.77287188  0.42075660     0.12000
H475        H  0.55872968  0.69097993  0.38733820     0.12000
H476        H  0.40704918  0.70820556  0.35051673     0.12000
C477        C  0.55506319  0.27199778  0.64077306    -0.14200
C478        C  0.51245983  0.29682923  0.65455222     0.08000
C479        C  0.46786192  0.27336563  0.64787067    -0.14200
C480        C  0.46565129  0.22677284  0.62734011    -0.14200
C481        C  0.50797584  0.20213038  0.61226526     0.08000
C482        C  0.55282097  0.22529879  0.61945102    -0.14200
H483        H  0.58990949  0.28910115  0.64517001     0.12000
H484        H  0.43426562  0.29119938  0.65845609     0.12000
H485        H  0.43049044  0.21041750  0.62245117     0.12000
H486        H  0.58623325  0.20750769  0.60820096     0.12000
C487        C  0.41389411  0.77645074  0.62360597    -0.14200
C488        C  0.45352037  0.79608195  0.59688888     0.08000
C489        C  0.49378478  0.76706093  0.58545678    -0.14200
C490        C  0.49545295  0.71935147  0.60220152    -0.14200
C491        C  0.45716615  0.69988255  0.63168180     0.08000
C492        C  0.41584519  0.72862278  0.64135184    -0.14200
H493        H  0.38263058  0.79863355  0.63278449     0.12000
H494        H  0.52451994  0.78174239  0.56439762     0.12000
H495        H  0.52777248  0.69843140  0.59391138     0.12000
H496        H  0.38575334  0.71468888  0.66398055     0.12000
C497        C  0.55847702  0.22788607  0.88551997    -0.14200
C498        C  0.51411747  0.20539425  0.89725814     0.08000
C499        C  0.47111715  0.23151068  0.88858876    -0.14200
C500        C  0.47229245  0.27870957  0.86930555    -0.14200
C501        C  0.51646312  0.30124781  0.85718133     0.08000
C502        C  0.55961851  0.27515920  0.86527220    -0.14200
H503        H  0.59233828  0.20888946  0.89181858     0.12000
H504        H  0.43630346  0.21572860  0.89742965     0.12000
H505        H  0.43820952  0.29743731  0.86335907     0.12000
H506        H  0.59420319  0.29144817  0.85654540     0.12000
C507        C  0.43985769  0.79153413  0.83986712    -0.14200
C508        C  0.44623601  0.80102766  0.89370798     0.08000
C509        C  0.45606899  0.76265813  0.92853281    -0.14200
C510        C  0.46210312  0.71575073  0.90932198    -0.14200
C511        C  0.45672305  0.70641337  0.85527888     0.08000
C512        C  0.44406235  0.74440832  0.82097212    -0.14200
H513        H  0.43311183  0.82075492  0.81231540     0.12000
H514        H  0.46213178  0.76949185  0.97009944     0.12000
H515        H  0.47151213  0.68692834  0.93644747     0.12000
H516        H  0.43975999  0.73795053  0.77907281     0.12000
C517        C  0.58229771  0.26996576  0.13603743    -0.14200
C518        C  0.53849779  0.29628579  0.13344059     0.08000
C519        C  0.49771087  0.27454652  0.11110804    -0.14200
C520        C  0.49996284  0.22721285  0.09365094    -0.14200
C521        C  0.54314120  0.20063329  0.09726224     0.08000
C522        C  0.58472830  0.22244511  0.11747307    -0.14200
H523        H  0.61432497  0.28575897  0.15322076     0.12000
H524        H  0.46337831  0.29347441  0.10877101     0.12000
H525        H  0.46753050  0.21094893  0.07785462     0.12000
H526        H  0.61827075  0.20225931  0.12075561     0.12000
C527        C  0.43957401  0.72507886  0.14243885    -0.14200
C528        C  0.48251894  0.70034386  0.15546287     0.08000
C529        C  0.52679721  0.72440847  0.14897954    -0.14200
C530        C  0.52850378  0.77129394  0.12896532    -0.14200
C531        C  0.48597795  0.79572627  0.11410931     0.08000
C532        C  0.44131501  0.77215268  0.12149095    -0.14200
H533        H  0.40491045  0.70761211  0.14702550     0.12000
H534        H  0.56059240  0.70678786  0.15930296     0.12000
H535        H  0.56352793  0.78795469  0.12401693     0.12000
H536        H  0.40774133  0.78985014  0.11053431     0.12000
C537        C  0.22960732  0.46361964  0.38225552    -0.14200
C538        C  0.20317606  0.50634027  0.39010066     0.08000
C539        C  0.22565304  0.55071826  0.37911852    -0.14200
C540        C  0.27363878  0.55219004  0.36117331    -0.14200
C541        C  0.30029233  0.50937361  0.35474210     0.08000
C542        C  0.27752828  0.46512871  0.36518015    -0.14200
H543        H  0.21367833  0.42885923  0.39053016     0.12000
H544        H  0.20630311  0.58435826  0.38481240     0.12000
H545        H  0.29008430  0.58674965  0.35316327     0.12000
H546        H  0.29671016  0.43132977  0.35984589     0.12000
C547        C  0.78952591  0.43666693  0.34699930    -0.14200
C548        C  0.79852239  0.44357638  0.40084731     0.08000
C549        C  0.75967399  0.45231764  0.43537159    -0.14200
C550        C  0.71254981  0.45654063  0.41563878    -0.14200
C551        C  0.70375006  0.45054982  0.36150095     0.08000
C552        C  0.74237196  0.43927309  0.32759566    -0.14200
H553        H  0.81919931  0.43070607  0.31977548     0.12000
H554        H  0.76616282  0.45874247  0.47694144     0.12000
H555        H  0.68316910  0.46530187  0.44233498     0.12000
H556        H  0.73636925  0.43501516  0.28559952     0.12000
C557        C  0.23669767  0.54006795  0.56936208    -0.14200
C558        C  0.19864036  0.55181768  0.60388200     0.08000
C559        C  0.20833162  0.55914738  0.65751541    -0.14200
C560        C  0.25552912  0.55463789  0.67646976    -0.14200
C561        C  0.29327430  0.54084554  0.64240662     0.08000
C562        C  0.28370827  0.53390296  0.58867450    -0.14200
H563        H  0.22950453  0.53283394  0.52809710     0.12000
H564        H  0.17917878  0.56694414  0.68486401     0.12000
H565        H  0.26224283  0.55977348  0.71822248     0.12000
H566        H  0.31241957  0.52328441  0.56192057     0.10200
C567        C  0.77375481  0.44301669  0.62289339    -0.14200
C568        C  0.79493453  0.48740494  0.60915041     0.08000
C569        C  0.76820578  0.52990855  0.61712563    -0.14200
C570        C  0.72122262  0.52813636  0.63711008    -0.14200
C571        C  0.69959245  0.48385297  0.65013102     0.08000
C572        C  0.72668493  0.44128701  0.64363353    -0.14200
H573        H  0.79348163  0.40956120  0.61740686     0.12000
H574        H  0.78320203  0.56467140  0.60694065     0.12000
H575        H  0.70171749  0.56177656  0.64223389     0.12000
H576        H  0.71116281  0.40668094  0.65343947     0.12000
C577        C  0.22664231  0.50373854  0.90332949    -0.14200
C578        C  0.20053965  0.54684848  0.89726451     0.08000
C579        C  0.22379475  0.58797460  0.87792713    -0.14200
C580        C  0.27212008  0.58491296  0.86156393    -0.14200
C581        C  0.29775410  0.54101101  0.86572816     0.08000
C582        C  0.27483109  0.50090930  0.88820231    -0.14200
H583        H  0.20941935  0.47186825  0.91925476     0.12000
H584        H  0.20414468  0.62164104  0.87352507     0.12000
H585        H  0.28902892  0.61644518  0.84457154     0.12000
H586        H  0.29340341  0.46658228  0.89201176     0.12000
C587        C  0.72412740  0.53501047  0.85356949    -0.14200
C588        C  0.70267263  0.48987532  0.84449361     0.08000
C589        C  0.73022881  0.44806273  0.85416100    -0.14200
C590        C  0.77734780  0.45150622  0.87466971    -0.14200
C591        C  0.79809225  0.49683442  0.88517964     0.08000
C592        C  0.77108774  0.53845025  0.87332830    -0.14200
H593        H  0.70434380  0.56810559  0.84583761     0.12000
H594        H  0.71491578  0.41281778  0.84740299     0.12000
H595        H  0.79721531  0.41862203  0.88313082     0.12000
H596        H  0.78564625  0.57390198  0.88079892     0.12000
C597        C  0.23029259  0.56218391  0.11270936    -0.14200
C598        C  0.20863076  0.51791883  0.09937986     0.08000
C599        C  0.23427561  0.47515304  0.10966117    -0.14200
C600        C  0.28055845  0.47640929  0.13140199    -0.14200
C601        C  0.30267539  0.52041376  0.14416762     0.08000
C602        C  0.27673792  0.56339664  0.13543290    -0.14200
H603        H  0.21129919  0.59585274  0.10570473     0.12000
H604        H  0.21888522  0.44047339  0.10015567     0.12000
H605        H  0.29909455  0.44248518  0.13841003     0.12000
H606        H  0.29268710  0.59778282  0.14507616     0.12000
C607        C  0.74168845  0.50345083  0.16748003    -0.14200
C608        C  0.71028769  0.46630931  0.15389999     0.08000
C609        C  0.72804760  0.42629865  0.12587307    -0.14200
C610        C  0.77636978  0.42506416  0.10893231    -0.14200
C611        C  0.80763164  0.46309273  0.12149854     0.08000
C612        C  0.78987210  0.50163368  0.15208084    -0.14200
H613        H  0.72885358  0.53404388  0.19011830     0.12000
H614        H  0.70421878  0.39694589  0.11569816     0.12000
H615        H  0.78898686  0.39501533  0.08536572     0.12000
H616        H  0.81267226  0.53173666  0.16238564     0.12000
C617        C  0.19543399  0.96795495  0.50216728    -0.14200
C618        C  0.17040879  0.99699292  0.53840185     0.08000
C619        C  0.19636610  0.02133237  0.57762848    -0.14200
C620        C  0.24696302  0.01867466  0.57860164    -0.14200
C621        C  0.27198707  0.99019158  0.54158639     0.08000
C622        C  0.24562252  0.96410449  0.50411954    -0.14200
H623        H  0.17591910  0.94841086  0.47206637     0.12000
H624        H  0.17752622  0.04292304  0.60675555     0.12000
H625        H  0.26652328  0.03891134  0.60807531     0.12000
H626        H  0.26390782  0.94209443  0.47495265     0.12000
C627        C  0.79465514  0.97050546  0.43305479    -0.14200
C628        C  0.82045695  0.99637289  0.47118896     0.08000
C629        C  0.79530476  0.02776119  0.50492736    -0.14200
C630        C  0.74514190  0.03238277  0.50171654    -0.14200
C631        C  0.71881195  0.00517333  0.46507651     0.08000
C632        C  0.74411988  0.97437040  0.43049655    -0.14200
H633        H  0.81355653  0.94691862  0.40589389     0.12000
H634        H  0.81467553  0.04845373  0.53420201     0.12000
H635        H  0.72684934  0.05605791  0.52927122     0.12000
H636        H  0.72480958  0.95300272  0.40181175     0.12000
C637        C  0.97516883  0.79420867  0.57271508    -0.14200
C638        C  0.99783061  0.82040203  0.53230217     0.08000
C639        C  0.02614827  0.79592724  0.49492471    -0.14200
C640        C  0.03086653  0.74591931  0.49690187    -0.14200
C641        C  0.00689361  0.71927916  0.53603394     0.08000
C642        C  0.97916644  0.74386949  0.57418552    -0.14200
H643        H  0.95396767  0.81267603  0.60248937     0.12000
H644        H  0.04433602  0.81570864  0.46386481     0.12000
H645        H  0.05195143  0.72796590  0.46665343     0.12000
H646        H  0.96035980  0.72414258  0.60483238     0.12000
C647        C  0.96061546  0.19819751  0.50655430    -0.14200
C648        C  0.99362982  0.17191828  0.47582008     0.08000
C649        C  0.02279750  0.19635479  0.43920270    -0.14200
C650        C  0.02072209  0.24668853  0.43551379    -0.14200
C651        C  0.98837802  0.27314371  0.46728336     0.08000
C652        C  0.95769529  0.24818631  0.50203290    -0.14200
H653        H  0.93748661  0.17990427  0.53463343     0.12000
H654        H  0.04783909  0.17651597  0.41441689     0.12000
H655        H  0.04470023  0.26492018  0.40828766     0.12000
H656        H  0.93261836  0.26741929  0.52732749     0.12000
C657        C  0.20033492  0.96718783  0.99078547    -0.14200
C658        C  0.17684962  0.00530572  0.96428685     0.08000
C659        C  0.20445520  0.03689184  0.93337543    -0.14200
C660        C  0.25486301  0.03172826  0.93105015    -0.14200
C661        C  0.27853714  0.99439051  0.95896316     0.08000
C662        C  0.25047872  0.96156347  0.98787753    -0.14200
H663        H  0.17973298  0.94205428  0.01448799     0.12000
H664        H  0.18704839  0.06586039  0.91164857     0.12000
H665        H  0.27535979  0.05753940  0.90816811     0.12000
H666        H  0.26735673  0.93252331  0.00997628     0.12000
C667        C  0.80187392  0.03545762  0.06549252    -0.14200
C668        C  0.82661958  0.00450896  0.03057190     0.08000
C669        C  0.79965020  0.97287033  0.99914736    -0.14200
C670        C  0.74928290  0.97220951  0.00232746    -0.14200
C671        C  0.72466982  0.00433931  0.03555646     0.08000
C672        C  0.75117799  0.03617134  0.06703793    -0.14200
H673        H  0.82179348  0.05990926  0.09047739     0.12000
H674        H  0.81761313  0.94912237  0.97140300     0.12000
H675        H  0.72934870  0.94776781  0.97731786     0.12000
H676        H  0.73268402  0.06126022  0.09290148     0.12000
C677        C  0.96747541  0.80929847  0.94842312    -0.14200
C678        C  0.00334984  0.83376678  0.97657884     0.08000
C679        C  0.04146842  0.80754162  0.99957387    -0.14200
C680        C  0.04360116  0.75753688  0.99473740    -0.14200
C681        C  0.00737202  0.73270671  0.96717829     0.08000
C682        C  0.96926811  0.75915243  0.94402390    -0.14200
H683        H  0.93799585  0.82907976  0.93010741     0.12000
H684        H  0.06940844  0.82586271  0.02157780     0.12000
H685        H  0.07307629  0.73828186  0.01368510     0.12000
H686        H  0.94069256  0.74110008  0.92277559     0.12000
C687        C  0.98510021  0.21423184  0.97350737    -0.14200
C688        C  0.00119554  0.18537756  0.01565112     0.08000
C689        C  0.01438246  0.20750185  0.06331743    -0.14200
C690        C  0.01195695  0.25777800  0.06847562    -0.14200
C691        C  0.99451795  0.28636891  0.02669455     0.08000
C692        C  0.98081083  0.26408091  0.97935684    -0.14200
H693        H  0.97501569  0.19794016  0.93633780     0.12000
H694        H  0.02672073  0.18581084  0.09634729     0.12000
H695        H  0.02310136  0.27427530  0.10514657     0.12000
H696        H  0.96808968  0.28547010  0.94624268     0.12000
loop_ 
_geom_bond_atom_site_label_1 
_geom_bond_atom_site_label_2 
_geom_bond_distance 
_geom_bond_site_symmetry_2 
_ccdc_geom_bond_type 
N1            C6   1.354       .  A
N1            C5   1.356       .  A
N1           H33   1.040       .  S
N2            C9   1.350       .  A
N2           C10   1.350       .  A
N3            C8   1.350       .  A
N3            C7   1.351       .  A
N3           H34   1.041   1_556  S
N4           C11   1.353   1_556  A
N4           C12   1.355       .  A
C5           C13   1.386       .  A
C5           C21   1.418       .  A
C6           C22   1.419   1_655  A
C6           C14   1.389   1_554  A
C7           C15   1.387       .  A
C7           C24   1.410       .  A
C8           C23   1.410   1_565  A
C8           C16   1.387       .  A
C9           C21   1.412   1_565  A
C9           C17   1.386       .  A
C10          C24   1.410   1_654  A
C10          C18   1.385       .  A
C11          C19   1.387       .  A
C11          C22   1.418       .  A
C12          C20   1.385   1_556  A
C12          C23   1.418       .  A
C13          C14   1.373   1_554  A
C13          H25   1.081   1_554  S
C14          H26   1.080       .  S
C15          C16   1.374       .  A
C15          H27   1.082       .  S
C16          H28   1.082       .  S
C17          C18   1.374       .  A
C17          H29   1.082       .  S
C18          H30   1.082       .  S
C19          C20   1.377       .  A
C19          H31   1.081       .  S
C20          H32   1.082       .  S
C21         C668   1.496       .  S
C22         C688   1.490       .  S
C23         C658   1.492       .  S
C24         C678   1.484       .  S
N35          C40   1.355       .  A
N35          C39   1.354       .  A
N35          H67   1.038       .  S
N36          C43   1.351       .  A
N36          C44   1.351       .  A
N37          C42   1.353       .  A
N37          C41   1.354       .  A
N37          H68   1.036       .  S
N38          C45   1.351       .  A
N38          C46   1.351       .  A
C39          C47   1.387       .  A
C39          C55   1.416   1_545  A
C40          C56   1.416       .  A
C40          C48   1.387       .  A
C41          C49   1.387       .  A
C41          C58   1.416   1_455  A
C42          C57   1.417       .  A
C42          C50   1.387       .  A
C43          C55   1.417       .  A
C43          C51   1.387       .  A
C44          C58   1.416       .  A
C44          C52   1.386       .  A
C45          C53   1.386       .  A
C45          C56   1.415   1_455  A
C46          C54   1.387       .  A
C46          C57   1.416   1_545  A
C47          C48   1.370       .  A
C47          H59   1.083       .  S
C48          H60   1.082       .  S
C49          C50   1.369       .  A
C49          H61   1.082       .  S
C50          H62   1.083       .  S
C51          C52   1.374       .  A
C51          H63   1.081       .  S
C52          H64   1.082       .  S
C53          C54   1.371       .  A
C53          H65   1.081       .  S
C54          H66   1.081       .  S
C55         C628   1.488       .  S
C56         C648   1.488       .  S
C57         C618   1.486       .  S
C58         C638   1.486       .  S
Zr69         O70   2.443       .  S
Zr69         O71   2.452   1_556  S
Zr69         O72   2.440   1_556  S
Zr69         O75   2.428       .  S
Zr69         O77   2.386   1_556  S
Zr69         O78   2.380   1_556  S
Zr69         O79   2.411   1_655  S
Zr69         O80   2.405       .  S
O70         H126   0.991       .  S
O70         H134   0.990       .  S
O71          C91   1.287       .  A
O72          C93   1.284       .  A
O73         Zr83   2.447       .  S
O73          C92   1.289       .  A
O74         Zr82   2.438       .  S
O74          C93   1.284   1_455  A
O75          C92   1.283       .  A
O76         Zr84   2.397       .  S
O76          C91   1.279       .  A
O77         Zr82   2.399   1_655  S
O77         Zr84   2.382       .  S
O78         Zr83   2.381   1_554  S
O78         Zr84   2.381       .  S
O78         H113   0.965       .  S
O79         Zr82   2.407   1_556  S
O79         Zr99   2.392       .  S
O79         H116   0.965       .  S
O80         Zr83   2.384       .  S
O80         Zr99   2.393   1_655  S
Zr81        O106   2.450       .  S
Zr81        O100   2.429   1_554  S
Zr81        O108   2.429   1_554  S
Zr81         O96   2.433       .  S
Zr81         O87   2.391   1_455  S
Zr81         O88   2.403       .  S
Zr81         O89   2.376   1_554  S
Zr81         O90   2.387   1_554  S
Zr82        O101   2.437       .  S
Zr82         O94   2.435       .  S
Zr82         O95   2.449       .  S
Zr82         O88   2.395       .  S
Zr82         O89   2.377   1_554  S
Zr83         O85   2.434       .  S
Zr83        O107   2.437       .  S
Zr83        O109   2.422       .  S
Zr83         O87   2.396   1_556  S
Zr83         O90   2.387   1_655  S
Zr84        O110   2.436       .  S
Zr84        O111   2.436       .  S
Zr84         O86   2.438       .  S
Zr84         O87   2.386       .  S
Zr84         O88   2.385   1_655  S
O85         H122   0.990       .  S
O86         H117   0.990       .  S
O86         H131   0.990       .  S
O88         H114   0.966       .  S
O89         Zr99   2.369       .  S
O90         Zr99   2.379       .  S
O90         H115   0.965       .  S
C91         C611   1.479       .  S
C92         C591   1.490       .  S
C93         C691   1.476       .  S
O94         H130   0.990       .  S
O95          C97   1.290       .  A
O96          C97   1.284       .  A
C97         C598   1.489       .  S
O98         Zr99   2.440   1_655  S
O98         H127   0.990   1_655  S
Zr99        O102   2.438       .  S
Zr99        O103   2.441       .  S
Zr99        O104   2.415       .  S
O100        C105   1.282       .  A
O101        H118   0.990       .  S
O101        H133   0.990   1_554  S
O102        H119   0.990       .  S
O103        H123   0.989       .  S
O103        H132   0.989       .  S
O104        C105   1.282       .  A
C105        C578   1.463       .  S
O106        H125   0.990       .  S
O106        H129   0.990       .  S
O107        H121   0.990       .  S
O107        H128   0.990       .  S
O108        C112   1.285       .  A
O109        C112   1.284   1_655  A
O110        H120   0.990       .  S
O111        H124   0.990   1_655  S
C112        C681   1.479       .  S
Zr135       O136   2.440       .  S
Zr135       O137   2.436       .  S
Zr135       O138   2.442       .  S
Zr135       O141   2.419       .  S
Zr135       O143   2.384       .  S
Zr135       O144   2.382       .  S
Zr135       O145   2.401   1_455  S
Zr135       O146   2.405       .  S
O136        H192   0.990       .  S
O136        H200   0.990       .  S
O137        C157   1.284       .  A
O138        C159   1.287       .  A
O139       Zr149   2.447       .  S
O139        C158   1.289       .  A
O140       Zr148   2.419       .  S
O140        C159   1.282   1_655  A
O141        C158   1.283       .  A
O142       Zr150   2.415       .  S
O142        C157   1.280       .  A
O143       Zr148   2.396   1_455  S
O143       Zr150   2.377       .  S
O144       Zr149   2.378       .  S
O144       Zr150   2.372       .  S
O144        H179   0.966       .  S
O145       Zr148   2.405       .  S
O145       Zr165   2.393       .  S
O145        H182   0.967       .  S
O146       Zr149   2.392       .  S
O146       Zr165   2.392   1_455  S
Zr147       O172   2.444       .  S
Zr147       O166   2.427       .  S
Zr147       O174   2.425       .  S
Zr147       O162   2.423       .  S
Zr147       O153   2.395   1_655  S
Zr147       O154   2.401       .  S
Zr147       O155   2.370       .  S
Zr147       O156   2.390       .  S
Zr148       O167   2.436       .  S
Zr148       O160   2.436       .  S
Zr148       O161   2.441       .  S
Zr148       O154   2.390       .  S
Zr148       O155   2.375       .  S
Zr149       O151   2.435       .  S
Zr149       O173   2.437       .  S
Zr149       O175   2.435       .  S
Zr149       O153   2.394       .  S
Zr149       O156   2.393   1_455  S
Zr150       O176   2.435       .  S
Zr150       O177   2.433       .  S
Zr150       O152   2.433       .  S
Zr150       O153   2.394       .  S
Zr150       O154   2.391   1_455  S
O151        H188   0.990       .  S
O152        H183   0.989       .  S
O152        H197   0.990       .  S
O154        H180   0.967       .  S
O155       Zr165   2.369       .  S
O156       Zr165   2.378       .  S
O156        H181   0.968       .  S
C157        C558   1.464       .  S
C158        C538   1.485       .  S
C159        C641   1.477       .  S
O160        H196   0.990       .  S
O161        C163   1.288       .  A
O162        C163   1.283       .  A
C163        C568   1.485       .  S
O164       Zr165   2.440       .  S
O164        H193   0.990       .  S
Zr165       O168   2.439       .  S
Zr165       O169   2.437       .  S
Zr165       O170   2.421       .  S
O166        C171   1.283       .  A
O167        H184   0.990       .  S
O167        H199   0.990       .  S
O168        H185   0.990       .  S
O169        H189   0.990       .  S
O169        H198   0.990       .  S
O170        C171   1.282       .  A
C171        C548   1.466       .  S
O172        H191   0.990       .  S
O172        H195   0.990       .  S
O173        H187   0.990       .  S
O173        H194   0.990       .  S
O174        C178   1.285       .  A
O175        C178   1.286   1_455  A
O176        H186   0.990       .  S
O177        H190   0.990       .  S
C178        C651   1.480       .  S
Zr201       O202   2.439       .  S
Zr201       O203   2.434   1_554  S
Zr201       O204   2.444   1_554  S
Zr201       O207   2.429       .  S
Zr201       O209   2.387   1_554  S
Zr201       O210   2.384   1_554  S
Zr201       O211   2.405   1_565  S
Zr201       O212   2.403       .  S
O202        H258   0.990       .  S
O202        H266   0.990       .  S
O203        C223   1.284       .  A
O204        C225   1.288       .  A
O205       Zr215   2.456       .  S
O205        C224   1.291       .  A
O206       Zr214   2.423       .  S
O206        C225   1.283   1_545  A
O207        C224   1.284       .  A
O208       Zr216   2.429       .  S
O208        C223   1.283       .  A
O209       Zr214   2.398   1_565  S
O209       Zr216   2.377       .  S
O210       Zr215   2.380   1_556  S
O210       Zr216   2.372       .  S
O210        H245   0.966       .  S
O211       Zr214   2.405   1_554  S
O211       Zr231   2.389       .  S
O211        H248   0.966       .  S
O212       Zr215   2.385       .  S
O212       Zr231   2.391   1_565  S
Zr213       O238   2.443       .  S
Zr213       O232   2.443   1_556  S
Zr213       O240   2.433   1_556  S
Zr213       O228   2.440       .  S
Zr213       O219   2.405   1_545  S
Zr213       O220   2.410       .  S
Zr213       O221   2.371   1_556  S
Zr213       O222   2.389   1_556  S
Zr214       O233   2.438       .  S
Zr214       O226   2.433       .  S
Zr214       O227   2.446       .  S
Zr214       O220   2.390       .  S
Zr214       O221   2.372   1_556  S
Zr215       O217   2.434       .  S
Zr215       O239   2.438       .  S
Zr215       O241   2.437       .  S
Zr215       O219   2.396   1_554  S
Zr215       O222   2.388   1_565  S
Zr216       O242   2.437       .  S
Zr216       O243   2.435       .  S
Zr216       O218   2.436       .  S
Zr216       O219   2.398       .  S
Zr216       O220   2.401   1_565  S
O217        H254   0.990       .  S
O218        H249   0.990       .  S
O218        H263   0.990       .  S
O220        H246   0.967       .  S
O221       Zr231   2.369       .  S
O222       Zr231   2.381       .  S
O222        H247   0.963       .  S
C223        C508   1.470       .  S
C224        C531   1.495       .  S
C225        C661   1.484       .  S
O226        H262   0.990       .  S
O227        C229   1.289       .  A
O228        C229   1.286       .  A
C229        C498   1.493       .  S
O230       Zr231   2.440       .  S
O230        H259   0.990       .  S
Zr231       O234   2.438       .  S
Zr231       O235   2.441       .  S
Zr231       O236   2.409       .  S
O232        C237   1.285       .  A
O233        H250   0.990       .  S
O233        H265   0.990   1_556  S
O234        H251   0.990       .  S
O235        H255   0.990       .  S
O235        H264   0.989       .  S
O236        C237   1.281       .  A
C237        C521   1.466       .  S
O238        H257   0.990       .  S
O238        H261   0.990       .  S
O239        H253   0.990       .  S
O239        H260   0.990       .  S
O240        C244   1.284       .  A
O241        C244   1.286   1_565  A
O242        H252   0.990       .  S
O243        H256   0.990       .  S
C244        C671   1.470       .  S
Zr267       O268   2.440       .  S
Zr267       O269   2.437       .  S
Zr267       O270   2.438       .  S
Zr267       O273   2.430       .  S
Zr267       O275   2.387       .  S
Zr267       O276   2.380       .  S
Zr267       O277   2.407   1_545  S
Zr267       O278   2.403       .  S
O268        H324   0.990       .  S
O268        H332   0.990       .  S
O269        C289   1.285       .  A
O270        C291   1.286       .  A
O271       Zr281   2.453       .  S
O271        C290   1.289       .  A
O272       Zr280   2.433       .  S
O272        C291   1.285   1_565  A
O273        C290   1.284       .  A
O274       Zr282   2.417       .  S
O274        C289   1.281       .  A
O275       Zr280   2.398   1_545  S
O275       Zr282   2.379       .  S
O276       Zr281   2.379       .  S
O276       Zr282   2.378       .  S
O276        H311   0.966       .  S
O277       Zr280   2.411       .  S
O277       Zr297   2.395       .  S
O277        H314   0.966       .  S
O278       Zr281   2.384       .  S
O278       Zr297   2.395   1_545  S
Zr279       O304   2.444       .  S
Zr279       O298   2.431       .  S
Zr279       O306   2.426       .  S
Zr279       O294   2.439       .  S
Zr279       O285   2.399   1_565  S
Zr279       O286   2.402       .  S
Zr279       O287   2.370       .  S
Zr279       O288   2.393       .  S
Zr280       O299   2.437       .  S
Zr280       O292   2.435       .  S
Zr280       O293   2.460       .  S
Zr280       O286   2.391       .  S
Zr280       O287   2.372       .  S
Zr281       O283   2.435       .  S
Zr281       O305   2.437       .  S
Zr281       O307   2.427       .  S
Zr281       O285   2.402       .  S
Zr281       O288   2.390   1_545  S
Zr282       O308   2.436       .  S
Zr282       O309   2.435       .  S
Zr282       O284   2.437       .  S
Zr282       O285   2.398       .  S
Zr282       O286   2.392   1_545  S
O283        H320   0.990       .  S
O284        H315   0.990       .  S
O284        H329   0.990       .  S
O286        H312   0.966       .  S
O287       Zr297   2.367       .  S
O288       Zr297   2.381       .  S
O288        H313   0.966       .  S
C289        C458   1.466       .  S
C290        C481   1.494       .  S
C291        C631   1.482       .  S
O292        H328   0.990       .  S
O293        C295   1.292       .  A
O294        C295   1.286       .  A
C295        C468   1.495       .  S
O296       Zr297   2.442       .  S
O296        H325   0.990       .  S
Zr297       O300   2.438       .  S
Zr297       O301   2.444       .  S
Zr297       O302   2.416       .  S
O298        C303   1.283       .  A
O299        H316   0.990       .  S
O299        H331   0.990       .  S
O300        H317   0.990       .  S
O301        H321   0.990       .  S
O301        H330   0.989       .  S
O302        C303   1.281       .  A
C303        C488   1.461       .  S
O304        H323   0.990       .  S
O304        H327   0.990       .  S
O305        H319   0.990       .  S
O305        H326   0.990       .  S
O306        C310   1.285       .  A
O307        C310   1.284   1_545  A
O308        H318   0.990       .  S
O309        H322   0.990   1_545  S
C310        C621   1.475       .  S
O333       Zr345   2.452       .  S
O333        C335   1.290       .  A
O334       Zr371   2.399       .  S
O334        C335   1.280       .  A
C335        C608   1.465       .  S
O336       Zr348   2.447       .  S
O336        C338   1.290       .  A
O337       Zr372   2.465       .  S
O337        C338   1.295       .  A
C338        C471   1.499       .  S
O339       Zr348   2.451       .  S
O339        C341   1.290       .  A
O340       Zr371   2.407       .  S
O340        C341   1.283       .  A
C341        C551   1.470       .  S
O342       Zr345   2.437       .  S
O342        C344   1.288       .  A
O343       Zr372   2.460       .  S
O343        C344   1.293       .  A
C344        C528   1.491       .  S
Zr345       O346   2.433       .  S
Zr345       O347   2.434       .  S
Zr345       O351   2.367       .  S
Zr345       O352   2.368       .  S
Zr345       O375   2.377       .  S
Zr345       O377   2.364       .  S
O346        H389   0.990       .  S
O347        H388   0.990       .  S
O347        H392   0.990       .  S
Zr348       O349   2.437       .  S
Zr348       O350   2.436       .  S
Zr348       O352   2.372       .  S
Zr348       O351   2.374       .  S
Zr348       O376   2.368       .  S
Zr348       O378   2.377       .  S
O349        H390   0.990       .  S
O349        H393   0.990       .  S
O350        H383   0.990       .  S
O351       Zr371   2.377       .  S
O352       Zr372   2.395       .  S
O352        H379   0.964       .  S
O353       Zr365   2.426       .  S
O353        C355   1.285       .  A
O354       Zr372   2.462       .  S
O354        C355   1.293       .  A
C355        C601   1.487       .  S
O356       Zr368   2.453       .  S
O356        C358   1.290       .  A
O357       Zr371   2.407       .  S
O357        C358   1.282       .  A
C358        C461   1.470       .  S
O359       Zr368   2.426       .  S
O359        C361   1.287       .  A
O360       Zr372   2.451       .  S
O360        C361   1.292       .  A
C361        C541   1.483       .  S
O362       Zr365   2.445       .  S
O362        C364   1.289       .  A
O363       Zr371   2.406       .  S
O363        C364   1.282       .  A
C364        C518   1.479       .  S
Zr365       O366   2.439       .  S
Zr365       O367   2.436       .  S
Zr365       O373   2.367       .  S
Zr365       O374   2.368       .  S
Zr365       O377   2.363       .  S
Zr365       O375   2.381       .  S
O366        H386   0.990       .  S
O366        H391   0.990       .  S
O367        H387   0.990       .  S
Zr368       O369   2.435       .  S
Zr368       O370   2.437       .  S
Zr368       O374   2.371       .  S
Zr368       O373   2.373       .  S
Zr368       O378   2.382       .  S
Zr368       O376   2.359       .  S
O369        H385   0.990       .  S
O370        H384   0.990       .  S
O370        H394   0.990       .  S
Zr371       O374   2.371       .  S
Zr371       O376   2.382       .  S
Zr371       O377   2.381       .  S
Zr372       O373   2.397       .  S
Zr372       O375   2.400       .  S
Zr372       O378   2.405       .  S
O373        H381   0.964       .  S
O376        H380   0.964       .  S
O377        H382   0.966       .  S
O395       Zr407   2.427       .  S
O395        C397   1.286       .  A
O396       Zr433   2.447       .  S
O396        C397   1.291       .  A
C397        C571   1.486       .  S
O398       Zr410   2.471       .  S
O398        C400   1.292       .  A
O399       Zr434   2.400       .  S
O399        C400   1.281       .  A
C400        C511   1.475       .  S
O401       Zr410   2.425       .  S
O401        C403   1.286       .  A
O402       Zr433   2.459       .  S
O402        C403   1.293       .  A
C403        C588   1.489       .  S
O404       Zr407   2.442       .  S
O404        C406   1.289       .  A
O405       Zr434   2.411       .  S
O405        C406   1.283       .  A
C406        C491   1.479       .  S
Zr407       O408   2.435       .  S
Zr407       O409   2.436       .  S
Zr407       O413   2.366       .  S
Zr407       O414   2.375       .  S
Zr407       O437   2.361       .  S
Zr407       O439   2.375       .  S
O408        H451   0.990       .  S
O409        H450   0.990       .  S
O409        H454   0.990       .  S
Zr410       O411   2.437       .  S
Zr410       O412   2.433       .  S
Zr410       O414   2.367       .  S
Zr410       O413   2.374       .  S
Zr410       O438   2.386       .  S
Zr410       O440   2.359       .  S
O411        H452   0.990       .  S
O411        H455   0.990       .  S
O412        H445   0.990       .  S
O413       Zr433   2.386       .  S
O414       Zr434   2.378       .  S
O414        H441   0.966       .  S
O415       Zr427   2.464       .  S
O415        C417   1.291       .  A
O416       Zr434   2.391       .  S
O416        C417   1.280       .  A
C417        C561   1.467       .  S
O418       Zr430   2.428       .  S
O418        C420   1.286       .  A
O419       Zr433   2.458       .  S
O419        C420   1.293       .  A
C420        C501   1.492       .  S
O421       Zr430   2.432       .  S
O421        C423   1.287       .  A
O422       Zr434   2.413       .  S
O422        C423   1.284       .  A
C423        C581   1.474       .  S
O424       Zr427   2.429       .  S
O424        C426   1.287       .  A
O425       Zr433   2.462       .  S
O425        C426   1.294       .  A
C426        C478   1.490       .  S
Zr427       O428   2.436       .  S
Zr427       O429   2.436       .  S
Zr427       O435   2.366       .  S
Zr427       O436   2.371       .  S
Zr427       O439   2.384       .  S
Zr427       O437   2.365       .  S
O428        H448   0.990       .  S
O428        H453   0.990       .  S
O429        H449   0.990       .  S
Zr430       O431   2.434       .  S
Zr430       O432   2.435       .  S
Zr430       O436   2.362       .  S
Zr430       O435   2.374       .  S
Zr430       O440   2.368       .  S
Zr430       O438   2.373       .  S
O431        H447   0.990       .  S
O432        H446   0.990       .  S
O432        H456   0.990       .  S
Zr433       O436   2.382       .  S
Zr433       O438   2.403       .  S
Zr433       O439   2.407       .  S
Zr434       O435   2.380       .  S
Zr434       O437   2.380       .  S
Zr434       O440   2.377       .  S
O435        H443   0.966       .  S
O438        H442   0.966       .  S
O439        H444   0.966       .  S
C457        C458   1.404       .  A
C457        C462   1.397       .  A
C457        H463   1.084       .  S
C458        C459   1.402       .  A
C459        C460   1.398       .  A
C459        H464   1.083       .  S
C460        C461   1.405       .  A
C460        H465   1.084       .  S
C461        C462   1.402       .  A
C462        H466   1.083       .  S
C467        C468   1.411       .  A
C467        C472   1.410       .  A
C467        H473   1.083       .  S
C468        C469   1.403       .  A
C469        C470   1.400       .  A
C469        H474   1.083       .  S
C470        C471   1.411       .  A
C470        H475   1.083       .  S
C471        C472   1.408       .  A
C472        H476   1.083       .  S
C477        C478   1.405       .  A
C477        C482   1.408       .  A
C477        H483   1.083       .  S
C478        C479   1.409       .  A
C479        C480   1.397       .  A
C479        H484   1.083       .  S
C480        C481   1.404       .  A
C480        H485   1.083       .  S
C481        C482   1.413       .  A
C482        H486   1.083       .  S
C487        C488   1.400       .  A
C487        C492   1.401       .  A
C487        H493   1.083       .  S
C488        C489   1.400       .  A
C489        C490   1.390       .  A
C489        H494   1.084       .  S
C490        C491   1.405       .  A
C490        H495   1.083       .  S
C491        C492   1.410       .  A
C492        H496   1.083       .  S
C497        C498   1.411       .  A
C497        C502   1.408       .  A
C497        H503   1.083       .  S
C498        C499   1.405       .  A
C499        C500   1.397       .  A
C499        H504   1.083       .  S
C500        C501   1.409       .  A
C500        H505   1.083       .  S
C501        C502   1.406       .  A
C502        H506   1.083       .  S
C507        C508   1.401       .  A
C507        C512   1.398       .  A
C507        H513   1.083       .  S
C508        C509   1.406       .  A
C509        C510   1.400       .  A
C509        H514   1.084       .  S
C510        C511   1.402       .  A
C510        H515   1.083       .  S
C511        C512   1.407       .  A
C512        H516   1.084       .  S
C517        C518   1.411       .  A
C517        C522   1.403       .  A
C517        H523   1.083       .  S
C518        C519   1.403       .  A
C519        C520   1.389       .  A
C519        H524   1.083       .  S
C520        C521   1.402       .  A
C520        H525   1.084       .  S
C521        C522   1.401       .  A
C522        H526   1.083       .  S
C527        C528   1.406       .  A
C527        C532   1.410       .  A
C527        H533   1.083       .  S
C528        C529   1.408       .  A
C529        C530   1.396       .  A
C529        H534   1.083       .  S
C530        C531   1.404       .  A
C530        H535   1.083       .  S
C531        C532   1.413       .  A
C532        H536   1.083       .  S
C537        C538   1.403       .  A
C537        C542   1.394       .  A
C537        H543   1.083       .  S
C538        C539   1.410       .  A
C539        C540   1.403       .  A
C539        H544   1.083       .  S
C540        C541   1.404       .  A
C540        H545   1.083       .  S
C541        C542   1.408       .  A
C542        H546   1.083       .  S
C547        C548   1.401       .  A
C547        C552   1.395       .  A
C547        H553   1.083       .  S
C548        C549   1.405       .  A
C549        C550   1.400       .  A
C549        H554   1.084       .  S
C550        C551   1.404       .  A
C550        H555   1.083       .  S
C551        C552   1.404       .  A
C552        H556   1.084       .  S
C557        C558   1.405       .  A
C557        C562   1.398       .  A
C557        H563   1.084       .  S
C558        C559   1.401       .  A
C559        C560   1.395       .  A
C559        H564   1.084       .  S
C560        C561   1.405       .  A
C560        H565   1.084       .  S
C561        C562   1.401       .  A
C562        H566   1.083       .  S
C567        C568   1.410       .  A
C567        C572   1.404       .  A
C567        H573   1.083       .  S
C568        C569   1.403       .  A
C569        C570   1.395       .  A
C569        H574   1.083       .  S
C570        C571   1.409       .  A
C570        H575   1.083       .  S
C571        C572   1.404       .  A
C572        H576   1.083       .  S
C577        C578   1.401       .  A
C577        C582   1.388       .  A
C577        H583   1.084       .  S
C578        C579   1.401       .  A
C579        C580   1.400       .  A
C579        H584   1.083       .  S
C580        C581   1.409       .  A
C580        H585   1.083       .  S
C581        C582   1.403       .  A
C582        H586   1.083       .  S
C587        C588   1.409       .  A
C587        C592   1.396       .  A
C587        H593   1.083       .  S
C588        C589   1.405       .  A
C589        C590   1.407       .  A
C589        H594   1.083       .  S
C590        C591   1.413       .  A
C590        H595   1.083       .  S
C591        C592   1.403       .  A
C592        H596   1.083       .  S
C597        C598   1.413       .  A
C597        C602   1.408       .  A
C597        H603   1.083       .  S
C598        C599   1.402       .  A
C599        C600   1.394       .  A
C599        H604   1.083       .  S
C600        C601   1.408       .  A
C600        H605   1.083       .  S
C601        C602   1.405       .  A
C602        H606   1.083       .  S
C607        C608   1.396       .  A
C607        C612   1.388       .  A
C607        H613   1.084       .  S
C608        C609   1.406       .  A
C609        C610   1.403       .  A
C609        H614   1.083       .  S
C610        C611   1.406       .  A
C610        H615   1.083       .  S
C611        C612   1.408       .  A
C612        H616   1.083       .  S
C617        C618   1.402       .  A
C617        C622   1.392       .  A
C617        H623   1.084       .  S
C618        C619   1.404   1_565  A
C619        C620   1.400       .  A
C619        H624   1.083       .  S
C620        C621   1.407   1_545  A
C620        H625   1.083       .  S
C621        C622   1.403       .  A
C622        H626   1.083       .  S
C627        C628   1.404       .  A
C627        C632   1.402       .  A
C627        H633   1.083       .  S
C628        C629   1.403   1_565  A
C629        C630   1.394       .  A
C629        H634   1.084       .  S
C630        C631   1.405       .  A
C630        H635   1.083       .  S
C631        C632   1.408   1_545  A
C632        H636   1.083       .  S
C637        C638   1.403       .  A
C637        C642   1.401       .  A
C637        H643   1.083       .  S
C638        C639   1.402   1_655  A
C639        C640   1.394       .  A
C639        H644   1.083       .  S
C640        C641   1.403       .  A
C640        H645   1.083       .  S
C641        C642   1.408   1_455  A
C642        H646   1.083       .  S
C647        C648   1.402       .  A
C647        C652   1.394       .  A
C647        H653   1.083       .  S
C648        C649   1.405   1_655  A
C649        C650   1.401       .  A
C649        H654   1.083       .  S
C650        C651   1.407   1_455  A
C650        H655   1.083       .  S
C651        C652   1.406       .  A
C652        H656   1.083       .  S
C657        C658   1.406   1_565  A
C657        C662   1.396       .  A
C657        H663   1.083   1_556  S
C658        C659   1.403       .  A
C659        C660   1.401       .  A
C659        H664   1.083       .  S
C660        C661   1.410   1_545  A
C660        H665   1.083       .  S
C661        C662   1.405       .  A
C662        H666   1.083   1_556  S
C667        C668   1.409       .  A
C667        C672   1.402       .  A
C667        H673   1.083       .  S
C668        C669   1.405   1_544  A
C669        C670   1.395   1_556  A
C669        H674   1.083       .  S
C670        C671   1.401   1_565  A
C670        H675   1.083   1_554  S
C671        C672   1.403       .  A
C672        H676   1.083       .  S
C677        C678   1.402   1_655  A
C677        C682   1.397       .  A
C677        H683   1.083       .  S
C678        C679   1.402       .  A
C679        C680   1.395       .  A
C679        H684   1.083   1_556  S
C680        C681   1.407       .  A
C680        H685   1.083   1_556  S
C681        C682   1.407   1_455  A
C682        H686   1.083       .  S
C687        C688   1.403   1_656  A
C687        C692   1.396       .  A
C687        H693   1.083       .  S
C688        C689   1.406       .  A
C689        C690   1.403       .  A
C689        H694   1.083       .  S
C690        C691   1.404   1_455  A
C690        H695   1.083       .  S
C691        C692   1.405   1_554  A
C692        H696   1.083       .  S
