geometry optimzed in LAMMPS
_audit_creation_date              2020-11-30 
_audit_creation_method            'lammps2cif' 
_symmetry_space_group_name_H-M    'P1' 
_symmetry_Int_Tables_number       1 
_symmetry_cell_setting            triclinic 
loop_ 
_symmetry_equiv_pos_as_xyz 
  x,y,z 
_cell_length_a                    53.44288244926145 
_cell_length_b                    53.48732767682005 
_cell_length_c                    65.72163196266 
_cell_angle_alpha                 89.95214789761322 
_cell_angle_beta                  89.99667488948793 
_cell_angle_gamma                 120.03823466517309 
loop_ 
_atom_site_label 
_atom_site_type_symbol 
_atom_site_fract_x 
_atom_site_fract_y 
_atom_site_fract_z 
_atom_site_charge 
C1          C  0.35571095  0.04608364  0.73296322     0.04430
C2          C  0.38126793  0.05758506  0.72148654    -0.11720
C3          C  0.38243782  0.04488894  0.70280657     0.01930
C4          C  0.35684608  0.02001296  0.69620682    -0.10240
C5          C  0.33168419  0.00738373  0.70820060     0.04420
C6          C  0.33129885  0.02081582  0.72636691    -0.09670
H7          H  0.40012295  0.07594017  0.72780961     0.10020
H8          H  0.35591588  0.01004888  0.68175153     0.07550
H9          H  0.31195195  0.01130175  0.73566792     0.07390
C10         C  0.43961604  0.05199294  0.66374859     0.04430
C11         C  0.41384302  0.04062861  0.67508865    -0.11720
C12         C  0.41017069  0.05700652  0.69062020     0.01930
C13         C  0.43375692  0.08493212  0.69469225    -0.10240
C14         C  0.46009888  0.09546904  0.68441421     0.04420
C15         C  0.46259376  0.07936965  0.66870309    -0.09670
H16         H  0.39725239  0.01874810  0.67183992     0.10020
H17         H  0.43237765  0.09887377  0.70592783     0.07550
H18         H  0.98261681  0.08851278  0.66016046     0.07390
C19         C  0.26545805  0.37768043  0.83615798     0.04430
C20         C  0.28156387  0.36798297  0.84682265    -0.11720
C21         C  0.30213644  0.38555594  0.86153232     0.01930
C22         C  0.30618147  0.41351519  0.86492442    -0.10240
C23         C  0.28861093  0.42257505  0.85524515     0.04420
C24         C  0.26772051  0.40398367  0.84132071    -0.09670
H25         H  0.27748720  0.34655213  0.84334932     0.10020
H26         H  0.32333327  0.42879254  0.87460236     0.07550
H27         H  0.25404276  0.41056918  0.83360439     0.07390
C28         C  0.34605657  0.37600075  0.90364461     0.04430
C29         C  0.33234536  0.38748622  0.89191944    -0.11720
C30         C  0.31859952  0.37442124  0.87341526     0.01930
C31         C  0.31995990  0.34992742  0.86679503    -0.10240
C32         C  0.33156013  0.33692048  0.87924764     0.04420
C33         C  0.34396484  0.34988510  0.89785862    -0.09670
H34         H  0.33284275  0.40670740  0.89743422     0.10020
H35         H  0.31229021  0.34073566  0.85192990     0.07550
H36         H  0.35257001  0.33992768  0.90788174     0.07390
C37         C  0.44470042  0.21777803  0.49881935     0.04430
C38         C  0.45834309  0.20596150  0.51052617    -0.11720
C39         C  0.47860890  0.22235053  0.52592011     0.01930
C40         C  0.48339315  0.25052507  0.52983084    -0.10240
C41         C  0.46832799  0.26146202  0.51913106     0.04420
C42         C  0.45012470  0.24563183  0.50327159    -0.09670
H43         H  0.45264132  0.18395126  0.50746594     0.10020
H44         H  0.49893758  0.26461576  0.54091550     0.07550
H45         H  0.44038529  0.25545315  0.49421446     0.07390
C46         C  0.02885242  0.21647156  0.56482188     0.04430
C47         C  0.01069324  0.22473750  0.55532716    -0.11720
C48         C  0.99533943  0.21086376  0.53738779     0.01930
C49         C  0.99601187  0.18580433  0.53096710    -0.10240
C50         C  0.01323617  0.17656482  0.54111070     0.04420
C51         C  0.03172796  0.19405365  0.55655861    -0.09670
H52         H  0.00811171  0.24136868  0.56261819     0.10020
H53         H  0.98273872  0.17281025  0.51857993     0.07550
H54         H  0.04681663  0.18867292  0.56351719     0.07390
C55         C  0.26694965  0.22163867  0.99380226     0.04430
C56         C  0.24141769  0.20964119  0.00539972    -0.11720
C57         C  0.24019284  0.22243704  0.02402302     0.01930
C58         C  0.26579834  0.24703153  0.03081613    -0.10240
C59         C  0.29067142  0.26040680  0.01857899     0.04420
C60         C  0.29046590  0.24803019  0.99980915    -0.09670
H61         H  0.22305362  0.19013656  0.99983846     0.10020
H62         H  0.26692155  0.25571737  0.04582024     0.07550
H63         H  0.30916863  0.25855179  0.98992744     0.07390
C64         C  0.18486823  0.21455241  0.06476575     0.04430
C65         C  0.20936447  0.22663467  0.05204526    -0.11720
C66         C  0.21295602  0.20999271  0.03668549     0.01930
C67         C  0.19013104  0.18139810  0.03363635    -0.10240
C68         C  0.16511013  0.16979289  0.04558965     0.04420
C69         C  0.16306434  0.18601613  0.06141535    -0.09670
H70         H  0.22518904  0.24915686  0.05414454     0.10020
H71         H  0.19147166  0.16743768  0.02239204     0.07550
H72         H  0.14414012  0.17622001  0.07113860     0.07390
C73         C  0.02409994  0.37813476  0.40117711     0.04430
C74         C  0.05030246  0.38817756  0.39082986    -0.11720
C75         C  0.05190001  0.37537677  0.37243995     0.01930
C76         C  0.02625382  0.35053637  0.36567692    -0.10240
C77         C  0.50023828  0.33968929  0.37648314     0.04420
C78         C  0.49912887  0.35419723  0.39374255    -0.09670
H79         H  0.06926076  0.40553070  0.39784047     0.10020
H80         H  0.02558819  0.33883428  0.35220022     0.07550
H81         H  0.47887988  0.34612402  0.40187502     0.07390
C82         C  0.10894186  0.38344495  0.33333774     0.04430
C83         C  0.13344679  0.40796416  0.34062855    -0.11720
C84         C  0.13124890  0.42425062  0.35634460     0.01930
C85         C  0.10485260  0.41390318  0.36656919    -0.10240
C86         C  0.08018771  0.38729802  0.36101833     0.04420
C87         C  0.08270046  0.37298206  0.34373276    -0.09670
H88         H  0.15405760  0.41569002  0.33306005     0.10020
H89         H  0.10385638  0.42777668  0.37802285     0.07550
H90         H  0.06436922  0.35423646  0.33747651     0.07390
C91         C  0.10419400  0.05237395  0.16668699     0.04430
C92         C  0.10164024  0.07496018  0.17529161    -0.11720
C93         C  0.11818095  0.09017398  0.19207442     0.01930
C94         C  0.13477397  0.08034738  0.20218120    -0.10240
C95         C  0.13684943  0.05657158  0.19473571     0.04420
C96         C  0.12227125  0.04374600  0.17624212    -0.09670
H97         H  0.08783104  0.08192063  0.16824842     0.10020
H98         H  0.14585806  0.09173788  0.21579488     0.07550
H99         H  0.12528477  0.02754978  0.16872144     0.07390
C100        C  0.18620095  0.04922580  0.23428009     0.04430
C101        C  0.17296678  0.06112662  0.22225333    -0.11720
C102        C  0.15369314  0.04513329  0.20623674     0.01930
C103        C  0.15002239  0.01752997  0.20179194    -0.10240
C104        C  0.16410902  0.00593116  0.21317702     0.04420
C105        C  0.18094959  0.02144174  0.22986802    -0.09670
H106        H  0.17831132  0.08299800  0.22552192     0.10020
H107        H  0.13621071  0.00459623  0.18956468     0.07550
H108        H  0.19012252  0.01172156  0.23959873     0.07390
C109        C  0.06170010  0.34181909  0.83132104     0.04430
C110        C  0.07232310  0.36736346  0.84278480    -0.11720
C111        C  0.05548021  0.37028281  0.85838895     0.01930
C112        C  0.02790583  0.34602003  0.86249452    -0.10240
C113        C  0.01781676  0.31992332  0.85179096     0.04420
C114        C  0.03445941  0.31844850  0.83594924    -0.09670
H115        H  0.09403918  0.38439894  0.83954830     0.10020
H116        H  0.01398615  0.34690976  0.87401641     0.07550
H117        H  0.02595133  0.29884322  0.82700584     0.07390
C118        C  0.06447519  0.42550872  0.90001563     0.04430
C119        C  0.05438500  0.39931025  0.88925508    -0.11720
C120        C  0.06662388  0.39824006  0.87027022     0.01930
C121        C  0.09026344  0.42426078  0.86293422    -0.10240
C122        C  0.10188815  0.44998429  0.87416273     0.04420
C123        C  0.08804612  0.45065870  0.89205214    -0.09670
H124        H  0.03758576  0.37982641  0.89620576     0.10020
H125        H  0.10027276  0.42509850  0.84850493     0.07550
H126        H  0.09640009  0.47086734  0.90017974     0.07390
C127        C  0.40007648  0.33996018  0.66514155     0.04430
C128        C  0.41001983  0.32395627  0.67580546    -0.11720
C129        C  0.39303523  0.30403533  0.69116464     0.01930
C130        C  0.36537886  0.30066350  0.69511221    -0.10240
C131        C  0.35579030  0.31753593  0.68502200     0.04420
C132        C  0.37358632  0.33744927  0.67028233    -0.09670
H133        H  0.43110699  0.32759771  0.67172411     0.10020
H134        H  0.35045145  0.28433179  0.70545897     0.07550
H135        H  0.36634486  0.35033662  0.66217590     0.07390
C136        C  0.39919030  0.25503147  0.73139384     0.04430
C137        C  0.38977680  0.27161434  0.72078251    -0.11720
C138        C  0.40369080  0.28658364  0.70266044     0.01930
C139        C  0.42872107  0.28573484  0.69640577    -0.10240
C140        C  0.43909287  0.27055379  0.70770648     0.04420
C141        C  0.42312379  0.25381683  0.72422091    -0.09670
H142        H  0.37232175  0.27346867  0.72741760     0.10020
H143        H  0.44119586  0.29745558  0.68330693     0.07550
H144        H  0.43060853  0.24114827  0.73236005     0.07390
C145        C  0.23058286  0.17310184  0.50059102     0.04430
C146        C  0.20590923  0.14845158  0.50744755    -0.11720
C147        C  0.19331851  0.14838718  0.52607340     0.01930
C148        C  0.20611578  0.17345097  0.53812745    -0.10240
C149        C  0.23044270  0.19932457  0.53113452     0.04420
C150        C  0.24241292  0.19851112  0.51210260    -0.09670
H151        H  0.19623777  0.12927391  0.49799824     0.10020
H152        H  0.19667398  0.17222596  0.55286221     0.07550
H153        H  0.26046238  0.21749229  0.50558471     0.07390
C154        C  0.23778364  0.25582026  0.57033121     0.04430
C155        C  0.26482294  0.27919468  0.56532111    -0.11720
C156        C  0.28107708  0.27698298  0.54951614     0.01930
C157        C  0.27033128  0.25091785  0.53882071    -0.10240
C158        C  0.24264519  0.22702133  0.54319353     0.04420
C159        C  0.22655441  0.23019514  0.55907906    -0.09670
H160        H  0.27340030  0.29912306  0.57390205     0.10020
H161        H  0.28427090  0.24965592  0.52749517     0.07550
H162        H  0.20495706  0.21328400  0.56277718     0.07390
C163        C  0.22368380  0.00762738  0.99916222     0.04430
C164        C  0.23414174  0.99143376  0.00918873    -0.11720
C165        C  0.21897189  0.47297473  0.02574263     0.01930
C166        C  0.19215646  0.47044177  0.03117228    -0.10240
C167        C  0.18246320  0.98768116  0.02200520     0.04420
C168        C  0.19871087  0.00680224  0.00654646    -0.09670
H169        H  0.25380882  0.99314427  0.00351539     0.10020
H170        H  0.17813623  0.45503094  0.04235972     0.07550
H171        H  0.19090081  0.01992246  0.99948369     0.07390
C172        C  0.23013776  0.42892106  0.06736300     0.04430
C173        C  0.21876195  0.44326590  0.05620621    -0.11720
C174        C  0.23088281  0.45669526  0.03731216     0.01930
C175        C  0.25525660  0.45534062  0.03022951    -0.10240
C176        C  0.26786291  0.44255249  0.04195260     0.04420
C177        C  0.25488879  0.42914788  0.06033530    -0.09670
H178        H  0.20092812  0.44426370  0.06298773     0.10020
H179        H  0.26497437  0.46408400  0.01567695     0.07550
H180        H  0.26430573  0.41905962  0.06943721     0.07390
C181        C  0.06617532  0.09180582  0.39922018     0.04430
C182        C  0.05533804  0.10656007  0.38786302    -0.11720
C183        C  0.06740392  0.11904896  0.36874367     0.01930
C184        C  0.09087130  0.11622384  0.36150692    -0.10240
C185        C  0.10297629  0.10304141  0.37339842     0.04420
C186        C  0.09001018  0.09043891  0.39194193    -0.09670
H187        H  0.03815178  0.10890368  0.39452542     0.10020
H188        H  0.10027838  0.12442701  0.34674800     0.07550
H189        H  0.09905398  0.08012082  0.40117646     0.07390
C190        C  0.06415200  0.17295245  0.33164039     0.04430
C191        C  0.07385716  0.15642622  0.34195648    -0.11720
C192        C  0.05657116  0.13610892  0.35704812     0.01930
C193        C  0.02887176  0.13257361  0.36096426    -0.10240
C194        C  0.01957594  0.14992638  0.35120132     0.04420
C195        C  0.03776364  0.17046756  0.33697159    -0.09670
H196        H  0.09507555  0.16008666  0.33813169     0.10020
H197        H  0.01395624  0.11590601  0.37115590     0.07550
H198        H  0.03084903  0.18393747  0.32930832     0.07390
C199        C  0.39828083  0.09162662  0.23486764     0.04430
C200        C  0.38711529  0.06581484  0.22394831    -0.11720
C201        C  0.39869202  0.06485852  0.20477941     0.01930
C202        C  0.42218357  0.09095634  0.19725155    -0.10240
C203        C  0.43496183  0.11638968  0.20899348     0.04420
C204        C  0.42255400  0.11641299  0.22773642    -0.09670
H205        H  0.36945138  0.04685135  0.23079796     0.10020
H206        H  0.43091256  0.09206511  0.18228097     0.07550
H207        H  0.43193553  0.13565863  0.23709923     0.07390
C208        C  0.39143962  0.50754304  0.16611616     0.04430
C209        C  0.40239643  0.03374192  0.17674936    -0.11720
C210        C  0.38681984  0.03683299  0.19310356     0.01930
C211        C  0.35970669  0.51258146  0.19818785    -0.10240
C212        C  0.34983043  0.48591589  0.18852661     0.04420
C213        C  0.36595394  0.48348400  0.17283144    -0.09670
H214        H  0.42281585  0.05147842  0.17177627     0.10020
H215        H  0.34574880  0.51385401  0.20948960     0.07550
H216        H  0.35781513  0.46292768  0.16513024     0.07390
C217        C  0.27600144  0.34227134  0.32991600     0.04430
C218        C  0.28874462  0.36721744  0.34223582    -0.11720
C219        C  0.30681089  0.36994599  0.35904479     0.01930
C220        C  0.30899029  0.34535178  0.36414905    -0.10240
C221        C  0.29606173  0.32021017  0.35222363     0.04420
C222        C  0.28127902  0.31977778  0.33454986    -0.09670
H223        H  0.28365342  0.38383436  0.33871949     0.10020
H224        H  0.32034516  0.34497581  0.37750659     0.07550
H225        H  0.27316527  0.30131273  0.32448730     0.07390
C226        C  0.35497495  0.42598123  0.39974826     0.04430
C227        C  0.33879918  0.39977397  0.38918123    -0.11720
C228        C  0.32324277  0.39794666  0.37108956     0.01930
C229        C  0.32417228  0.42362002  0.36442274    -0.10240
C230        C  0.33916132  0.44957099  0.37537011     0.04420
C231        C  0.35503307  0.45063875  0.39257165    -0.09670
H232        H  0.33833743  0.38113131  0.39575449     0.10020
H233        H  0.31355788  0.42420222  0.35064977     0.07550
H234        H  0.36697144  0.47077605  0.40080095     0.07390
C235        C  0.18260161  0.08523426  0.73520366     0.04430
C236        C  0.17101448  0.06116931  0.72238141    -0.11720
C237        C  0.15434215  0.05951388  0.70519490     0.01930
C238        C  0.15145705  0.08389328  0.70061596    -0.10240
C239        C  0.16466439  0.10884026  0.71281600     0.04420
C240        C  0.17924868  0.10875547  0.73039753    -0.09670
H241        H  0.17529907  0.04400879  0.72611280     0.10020
H242        H  0.13926190  0.08403226  0.68760342     0.07550
H243        H  0.18850940  0.12739946  0.74036609     0.07390
C244        C  0.11844963  0.50833893  0.66011348     0.04430
C245        C  0.13122693  0.03329307  0.67215149    -0.11720
C246        C  0.14066150  0.03276793  0.69213297     0.01930
C247        C  0.13676341  0.50616928  0.69953451    -0.10240
C248        C  0.12635020  0.48178241  0.68691260     0.04420
C249        C  0.11726061  0.48318350  0.66720943    -0.09670
H250        H  0.13342937  0.05277586  0.66556720     0.10020
H251        H  0.14148233  0.50387558  0.71515985     0.07550
H252        H  0.10864578  0.46443142  0.65739703     0.07390
C253        C  0.27662004  0.00549507  0.49936349     0.04430
C254        C  0.25126950  0.49210442  0.51114801    -0.11720
C255        C  0.24731079  0.47204855  0.52672646     0.01930
C256        C  0.27048070  0.46701505  0.53066604    -0.10240
C257        C  0.29637414  0.48148694  0.51964581     0.04420
C258        C  0.29909748  0.00013443  0.50383779    -0.09670
H259        H  0.23509435  0.49799971  0.50799698     0.10020
H260        H  0.26874913  0.45154196  0.54194298     0.07550
H261        H  0.31878879  0.01032430  0.49488921     0.07390
C262        C  0.19078381  0.42589641  0.56741840     0.04430
C263        C  0.21727397  0.44180552  0.55703169    -0.11720
C264        C  0.21918841  0.45616991  0.53842426     0.01930
C265        C  0.19382571  0.45542094  0.53128080    -0.10240
C266        C  0.16785265  0.44095248  0.54212347     0.04420
C267        C  0.16612474  0.42527224  0.55952240    -0.09670
H268        H  0.23630709  0.44345895  0.56402108     0.10020
H269        H  0.19360090  0.46604111  0.51738622     0.07550
H270        H  0.14556214  0.41339018  0.56731972     0.07390
C271        C  0.35284562  0.26226035  0.23647071     0.04430
C272        C  0.37799803  0.27559521  0.22456628    -0.11720
C273        C  0.37882954  0.28920831  0.20586207     0.01930
C274        C  0.35306683  0.28836882  0.19953321    -0.10240
C275        C  0.32837859  0.27652385  0.21191327     0.04420
C276        C  0.32848605  0.26346781  0.23031833    -0.09670
H277        H  0.39677895  0.27566931  0.23060663     0.10020
H278        H  0.35141444  0.29679280  0.18504425     0.07550
H279        H  0.30950309  0.25416559  0.23998212     0.07390
C280        C  0.43519684  0.34061490  0.16705611     0.04430
C281        C  0.40884276  0.32345647  0.17711210    -0.11720
C282        C  0.40660348  0.30554640  0.19380031     0.01930
C283        C  0.43150064  0.30377616  0.19884314    -0.10240
C284        C  0.45808301  0.32142631  0.18919590     0.04420
C285        C  0.45996020  0.34108963  0.17443208    -0.09670
H286        H  0.39039329  0.32412481  0.17134739     0.10020
H287        H  0.43058083  0.28820117  0.20967734     0.07550
H288        H  0.48077420  0.35558176  0.16762106     0.07390
C289        C  0.43946934  0.17391449  0.99901202     0.04430
C290        C  0.45758825  0.20101343  0.00793572    -0.11720
C291        C  0.47227786  0.20353665  0.02642917     0.01930
C292        C  0.47064948  0.17820329  0.03451230    -0.10240
C293        C  0.45424415  0.15141125  0.02494712     0.04420
C294        C  0.43727521  0.14920271  0.00818322    -0.09670
H295        H  0.46056133  0.22000645  0.00004476     0.10020
H296        H  0.48181873  0.17855066  0.04826025     0.07550
H297        H  0.42336619  0.12808958  0.00166994     0.07390
C298        C  0.02042201  0.26138566  0.06511781     0.04430
C299        C  0.00838552  0.23637178  0.05315338    -0.11720
C300        C  0.48866959  0.23214119  0.03730292     0.01930
C301        C  0.48329618  0.25501721  0.03299064    -0.10240
C302        C  0.99677242  0.28073686  0.04422303     0.04420
C303        C  0.01488410  0.28356692  0.06041048    -0.09670
H304        H  0.01406530  0.22021752  0.05694531     0.10020
H305        H  0.46779678  0.25289717  0.02159927     0.07550
H306        H  0.02441591  0.30300775  0.06960643     0.07390
C307        C  0.12797461  0.15638002  0.85513461     0.04430
C308        C  0.10113489  0.13826154  0.86442229    -0.11720
C309        C  0.07704384  0.14216330  0.86114684     0.01930
C310        C  0.08049182  0.16366245  0.84697005    -0.10240
C311        C  0.10685651  0.18078658  0.83695574     0.04420
C312        C  0.13073115  0.17820174  0.84205151    -0.09670
H313        H  0.09920448  0.12051788  0.87343286     0.10020
H314        H  0.06305479  0.16738985  0.84308273     0.07550
H315        H  0.15122260  0.19206547  0.83461234     0.07390
C316        C  0.52013188  0.08727383  0.89796493     0.04430
C317        C  0.49506254  0.08615662  0.89077900    -0.11720
C318        C  0.49628470  0.10497272  0.87553619     0.01930
C319        C  0.52264389  0.12246887  0.86550482    -0.10240
C320        C  0.04844286  0.12312113  0.87168802     0.04420
C321        C  0.04671392  0.10600837  0.88870534    -0.09670
H322        H  0.47464744  0.07200970  0.89823055     0.10020
H323        H  0.52258032  0.13602752  0.85343575     0.07550
H324        H  0.06578513  0.10720606  0.89527308     0.07390
O325        O  0.31178586  0.07957649  0.81356049    -0.85190
O326        O  0.39052875  0.21427855  0.87839091    -0.85350
O327        O  0.36451212  0.17984223  0.81304766    -0.87020
O328        O  0.39451301  0.13381488  0.85156480    -0.85780
O329        O  0.37609893  0.10608507  0.88029984    -0.85370
O330        O  0.32489828  0.18585301  0.81184932    -0.86740
O331        O  0.40267024  0.19567896  0.85107005    -0.85220
O332        O  0.35698620  0.11995235  0.81275221    -0.84800
Zr333      Zr  0.36041031  0.14954651  0.84201869     2.84310
O334        O  0.35986554  0.14952059  0.87770732    -1.06780
O335        O  0.31338557  0.13122846  0.82961449    -1.07510
C336        C  0.33732203  0.09525104  0.80582666     1.07920
C337        C  0.40808978  0.21559634  0.86432737     1.07860
C338        C  0.34937288  0.19004891  0.80504919     1.10850
C339        C  0.39558170  0.11837081  0.86629853     1.08630
H340        H  0.35367960  0.19810890  0.84824846     0.34180
O341        O  0.34189754  0.17863031  0.85323897    -1.27730
H342        H  0.33888757  0.09028357  0.84927494     0.33860
O343        O  0.33126754  0.10225678  0.85396168    -1.29410
O344        O  0.31398364  0.18306508  0.91699953    -0.85180
O345        O  0.23406098  0.04992203  0.85090644    -0.86680
O346        O  0.30865354  0.20945781  0.85105502    -0.85260
O347        O  0.36020154  0.12901483  0.91828428    -0.85310
O348        O  0.31480389  0.05210555  0.88056953    -0.85020
O349        O  0.26345763  0.13218423  0.81273669    -0.84820
O350        O  0.23053201  0.12886960  0.87818514    -0.85200
O351        O  0.25967900  0.08300008  0.91709305    -0.84660
O352        O  0.24890485  0.15676480  0.84960081    -0.85720
O353        O  0.29884182  0.07626708  0.91842315    -0.84880
O354        O  0.33675248  0.22017531  0.87969957    -0.85280
O355        O  0.25885784  0.08707038  0.81234105    -0.85000
O356        O  0.28685341  0.04206088  0.85200816    -0.84650
O357        O  0.36775247  0.17513832  0.91815684    -0.85060
O358        O  0.26740130  0.14497145  0.91617625    -0.85350
O359        O  0.22200562  0.06854316  0.87823548    -0.86690
Zr360      Zr  0.34135874  0.17863709  0.88887565     2.83100
Zr361      Zr  0.28430597  0.08416035  0.84178919     2.83500
Zr362      Zr  0.29476516  0.16015912  0.84095406     2.84090
Zr363      Zr  0.32997812  0.10220743  0.88953999     2.83360
Zr364      Zr  0.26475432  0.11362846  0.88826750     2.84220
O365        O  0.28286739  0.08400982  0.87733381    -1.07260
O366        O  0.29434371  0.16073466  0.87650632    -1.06770
C367        C  0.28777851  0.16875488  0.92380089     1.07890
C368        C  0.21610948  0.04914584  0.86445140     1.10510
C369        C  0.32386982  0.22646721  0.86568219     1.08070
C370        C  0.37127318  0.15476130  0.92570430     1.08430
C371        C  0.29939324  0.03526742  0.86592473     1.08010
C372        C  0.25376292  0.10656258  0.80534087     1.07560
C373        C  0.22930982  0.14417392  0.86342436     1.07990
C374        C  0.27441920  0.07242742  0.92516204     1.07500
H375        H  0.24606579  0.10536827  0.84762580     0.34180
O376        O  0.26547111  0.11303727  0.85275654    -1.28360
H377        H  0.31136342  0.13166502  0.91550660     0.34200
O378        O  0.31171034  0.13151804  0.90081874    -1.29750
O379        O  0.42781353  0.41613231  0.98096366    -0.85190
O380        O  0.48193323  0.04906039  0.04754362    -0.85350
O381        O  0.39846313  0.47075141  0.01814410    -0.87020
O382        O  0.47500570  0.01463938  0.98004199    -0.85780
O383        O  0.02108389  0.02154732  0.98089659    -0.85370
O384        O  0.38618798  0.44074822  0.04588421    -0.86740
O385        O  0.45220169  0.03160914  0.01960186    -0.85220
O386        O  0.42017114  0.45476723  0.98132420    -0.84800
Zr387      Zr  0.44837124  0.48569593  0.00949802     2.84310
O388        O  0.49579145  0.01417434  0.02142608    -1.06780
O389        O  0.42938490  0.43811638  0.02101084    -1.07510
C390        C  0.41670858  0.43091898  0.97384336     1.07920
C391        C  0.46576966  0.05066774  0.03362203     1.07860
C392        C  0.38045226  0.45411174  0.03182492     1.10850
C393        C  0.50085068  0.02482159  0.97290346     1.08630
H394        H  0.43603322  0.49315852  0.04996805     0.34180
O395        O  0.44772737  0.48530360  0.04510045    -1.27730
H396        H  0.47706386  0.46661225  0.98289132     0.33860
O397        O  0.47688312  0.46669699  0.99758193    -1.29410
O398        O  0.02462874  0.01648250  0.08617959    -0.85180
O399        O  0.47226453  0.38417170  0.01870518    -0.86680
O400        O  0.42469327  0.46453082  0.08515625    -0.85260
O401        O  0.05933144  0.04389845  0.01939539    -0.85310
O402        O  0.02908658  0.46785210  0.98162842    -0.85020
O403        O  0.39423977  0.38796001  0.04704809    -0.84820
O404        O  0.47724728  0.41789072  0.08619572    -0.85200
O405        O  0.05331960  0.46028144  0.04734004    -0.84660
O406        O  0.43145909  0.41142534  0.08618621    -0.85720
O407        O  0.06565643  0.49047951  0.01961060    -0.84880
O408        O  0.46530638  0.00951606  0.08624860    -0.85280
O409        O  0.41234547  0.37721800  0.01882249    -0.85000
O410        O  0.48922836  0.42249719  0.98079507    -0.84650
O411        O  0.04277698  0.05406969  0.04875156    -0.85060
O412        O  0.03121763  0.47732638  0.08652817    -0.85350
O413        O  0.99796320  0.39986029  0.04855010    -0.86690
Zr414      Zr  0.49520328  0.01327483  0.05705887     2.83100
Zr415      Zr  0.45822558  0.41943916  0.00942332     2.83500
Zr416      Zr  0.42850428  0.43769780  0.05659649     2.84090
Zr417      Zr  0.02400274  0.49472702  0.00985508     2.83360
Zr418      Zr  0.00434913  0.44714986  0.05731739     2.84220
O419        O  0.00531667  0.44742793  0.02168230    -1.07260
O420        O  0.47571430  0.46590684  0.06886302    -1.06770
C421        C  0.03533390  0.00160549  0.09379502     1.07890
C422        C  0.48583689  0.38139118  0.03397423     1.10510
C423        C  0.44052224  0.48979302  0.09307978     1.08070
C424        C  0.06178110  0.06023853  0.03457524     1.08430
C425        C  0.01408293  0.44225943  0.97395104     1.08010
C426        C  0.39305834  0.37072273  0.03283035     1.07560
C427        C  0.45157922  0.40741186  0.09364618     1.07990
C428        C  0.07094439  0.47645570  0.03332571     1.07500
H429        H  0.44914229  0.39936132  0.04998998     0.34180
O430        O  0.45719244  0.41890540  0.04506234    -1.28360
H431        H  0.04323382  0.00583601  0.05054868     0.34200
O432        O  0.02374791  0.49445201  0.04547350    -1.29750
O433        O  0.36383027  0.18388855  0.41947961    -0.85190
O434        O  0.31067749  0.05158284  0.35236354    -0.85350
O435        O  0.31889534  0.08601123  0.42000725    -0.87020
O436        O  0.39289704  0.12859165  0.37933301    -0.85780
O437        O  0.40230846  0.15630289  0.35062631    -0.85370
O438        O  0.27248128  0.07808991  0.42029422    -0.86740
O439        O  0.34081028  0.06954531  0.38004959    -0.85220
O440        O  0.37154700  0.14537822  0.41883387    -0.84800
Zr441      Zr  0.34397319  0.11495539  0.39023993     2.84310
O442        O  0.34305882  0.11498277  0.35470744    -1.06780
O443        O  0.31490954  0.13295513  0.40244796    -1.07510
C444        C  0.37487072  0.16901605  0.42664332     1.07920
C445        C  0.32733197  0.05038472  0.36610057     1.07860
C446        C  0.29334493  0.07528011  0.42777955     1.10850
C447        C  0.40899515  0.14306965  0.36412193     1.08630
H448        H  0.28875744  0.06608109  0.38382168     0.34180
O449        O  0.29624416  0.08559581  0.37896478    -1.27730
H450        H  0.38193892  0.17416700  0.38329422     0.33860
O451        O  0.36227539  0.16237406  0.37863591    -1.29410
O452        O  0.26593216  0.08326455  0.31408604    -0.85180
O453        O  0.31850266  0.21544340  0.38156566    -0.86680
O454        O  0.23273822  0.05390574  0.38197686    -0.85260
O455        O  0.36482796  0.13577198  0.31411369    -0.85310
O456        O  0.39638262  0.21120595  0.35258435    -0.85020
O457        O  0.26264513  0.13024115  0.41957733    -0.84820
O458        O  0.23484843  0.13452072  0.35302253    -0.85200
O459        O  0.31145695  0.18414358  0.31621845    -0.84660
O460        O  0.22364151  0.10474742  0.38080348    -0.85720
O461        O  0.35674720  0.18924177  0.31468928    -0.84880
O462        O  0.24938243  0.04476901  0.35230528    -0.85280
O463        O  0.30307775  0.17549526  0.42040624    -0.85000
O464        O  0.37873699  0.22298319  0.38065965    -0.84650
O465        O  0.32613538  0.08944870  0.31484529    -0.85060
O466        O  0.25857076  0.12203073  0.31471148    -0.85350
O467        O  0.28846322  0.19716197  0.35392139    -0.86690
Zr468      Zr  0.29562011  0.08626769  0.34330744     2.83100
Zr469      Zr  0.33314670  0.18038856  0.39091083     2.83500
Zr470      Zr  0.26725123  0.10374911  0.39115729     2.84090
Zr471      Zr  0.36099507  0.16210986  0.34301131     2.83360
Zr472      Zr  0.28492938  0.15154383  0.34405696     2.84220
O473        O  0.33243568  0.18053454  0.35536699    -1.07260
O474        O  0.26663316  0.10414993  0.35559138    -1.06770
C475        C  0.25531761  0.09846833  0.30678574     1.07890
C476        C  0.30220066  0.21674821  0.36755940     1.10510
C477        C  0.23062761  0.03774915  0.36672518     1.08070
C478        C  0.34990964  0.10976976  0.30722745     1.08430
C479        C  0.39791247  0.22872749  0.36664617     1.08010
C480        C  0.27841169  0.15558802  0.42734840     1.07560
C481        C  0.21718824  0.11747231  0.36668333     1.07990
C482        C  0.33686229  0.19435236  0.30834290     1.07500
H483        H  0.27337535  0.15884013  0.38469194     0.34180
O484        O  0.28531472  0.15134859  0.37967011    -1.28360
H485        H  0.31356764  0.13367929  0.31668293     0.34200
O486        O  0.31364926  0.13344701  0.33137395    -1.29750
O487        O  0.23072610  0.37598308  0.68532519    -0.85190
O488        O  0.09886949  0.29599211  0.75336946    -0.85350
O489        O  0.15108612  0.37885962  0.71431828    -0.87020
O490        O  0.19475582  0.34711151  0.75366486    -0.85780
O491        O  0.20379900  0.30935307  0.75289345    -0.85370
O492        O  0.12211192  0.36081082  0.68617759    -0.86740
O493        O  0.13737161  0.34232829  0.75247907    -0.85220
O494        O  0.21282211  0.38776765  0.71320770    -0.84800
Zr495      Zr  0.16747491  0.34528315  0.72351429     2.84310
O496        O  0.14931683  0.29814073  0.73520207    -1.06780
O497        O  0.16731073  0.34513072  0.68793923    -1.07510
C498        C  0.23192552  0.39374483  0.69911724     1.07920
C499        C  0.11384935  0.32194573  0.76047136     1.07860
C500        C  0.13468477  0.37988088  0.70029603     1.10850
C501        C  0.20539292  0.33203964  0.76105623     1.08630
H502        H  0.10805594  0.32410428  0.71692569     0.34180
O503        O  0.11997144  0.31653924  0.71199923    -1.27730
H504        H  0.21633988  0.33880680  0.71677655     0.33860
O505        O  0.19676769  0.32694063  0.71195481    -1.29410
O506        O  0.06560969  0.22078692  0.71378358    -0.85180
O507        O  0.19897115  0.29959686  0.64730284    -0.86680
O508        O  0.06957486  0.29920542  0.68484167    -0.85260
O509        O  0.15241069  0.25251113  0.75432434    -0.85310
O510        O  0.22742891  0.29312107  0.71323659    -0.85020
O511        O  0.14710896  0.34788214  0.64830186    -0.84820
O512        O  0.09999662  0.24643464  0.64799633    -0.85200
O513        O  0.14372010  0.21478895  0.68707679    -0.84660
O514        O  0.09443934  0.28630461  0.64717743    -0.85720
O515        O  0.17318330  0.23272448  0.71506855    -0.84880
O516        O  0.05999527  0.27353133  0.71464031    -0.85280
O517        O  0.19253668  0.35345046  0.64752526    -0.85000
O518        O  0.23700552  0.32045881  0.68428491    -0.84650
O519        O  0.10582457  0.24419258  0.75336119    -0.85060
O520        O  0.08318565  0.20884146  0.68575683    -0.85350
O521        O  0.16107390  0.25288024  0.64867373    -0.86690
Zr522      Zr  0.10184811  0.26948435  0.72401043     2.83100
Zr523      Zr  0.19582224  0.32626576  0.67626880     2.83500
Zr524      Zr  0.11996090  0.31592740  0.67638886     2.84090
Zr525      Zr  0.17809001  0.27941779  0.72381907     2.83360
Zr526      Zr  0.13011915  0.25012018  0.67693895     2.84220
O527        O  0.17763445  0.27909143  0.68828193    -1.07260
O528        O  0.10143016  0.26879614  0.68849082    -1.06770
C529        C  0.06366922  0.20356724  0.69933770     1.07890
C530        C  0.18444407  0.27340708  0.64064741     1.10510
C531        C  0.05303760  0.28481935  0.69987555     1.08070
C532        C  0.12662353  0.24220116  0.76165318     1.08430
C533        C  0.24365514  0.30745539  0.69798385     1.08010
C534        C  0.17272406  0.35835246  0.64067065     1.07560
C535        C  0.09017264  0.26197706  0.64011999     1.07990
C536        C  0.15946583  0.21321570  0.70135264     1.07500
H537        H  0.14858420  0.29719706  0.64985736     0.34180
O538        O  0.14855074  0.29723444  0.66454849    -1.28360
H539        H  0.12233120  0.23078568  0.71775795     0.34200
O540        O  0.13027086  0.25021448  0.71260117    -1.29750
O541        O  0.14119305  0.24924897  0.14526845    -0.85190
O542        O  0.22215287  0.38173944  0.21218228    -0.85350
O543        O  0.19562310  0.34984142  0.14663603    -0.87020
O544        O  0.22642992  0.30356132  0.18453809    -0.85780
O545        O  0.20817677  0.27427441  0.21258877    -0.85370
O546        O  0.15563976  0.35536532  0.14641495    -0.86740
O547        O  0.23382190  0.36400067  0.18410826    -0.85220
O548        O  0.18711065  0.28849086  0.14502785    -0.84800
Zr549      Zr  0.19146880  0.31808945  0.17466136     2.84310
O550        O  0.19180608  0.31781146  0.21025263    -1.06780
O551        O  0.14399163  0.29974339  0.16316880    -1.07510
C552        C  0.16663794  0.26469153  0.13742119     1.07920
C553        C  0.23945902  0.38329232  0.19792870     1.07860
C554        C  0.18021307  0.36018580  0.13933111     1.10850
C555        C  0.22762175  0.28751963  0.19879710     1.08630
H556        H  0.18471883  0.36658142  0.18188366     0.34180
O557        O  0.17306678  0.34697232  0.18666783    -1.27730
H558        H  0.17011172  0.25858357  0.18118529     0.33860
O559        O  0.16254575  0.27046260  0.18618948    -1.29410
O560        O  0.14651989  0.35034329  0.25056635    -0.85180
O561        O  0.06478146  0.21856969  0.18353587    -0.86680
O562        O  0.13889023  0.37729799  0.18593952    -0.85260
O563        O  0.19306814  0.29682065  0.25082659    -0.85310
O564        O  0.14672196  0.22070364  0.21234962    -0.85020
O565        O  0.09535498  0.30267924  0.14620090    -0.84820
O566        O  0.06218329  0.29638319  0.21383005    -0.85200
O567        O  0.09393451  0.25092182  0.25177951    -0.84660
O568        O  0.07975023  0.32425879  0.18510389    -0.85720
O569        O  0.13269632  0.24342859  0.25064121    -0.84880
O570        O  0.16866143  0.38835688  0.21369953    -0.85280
O571        O  0.09014376  0.25733163  0.14514629    -0.85000
O572        O  0.11663677  0.20896843  0.18465511    -0.84650
O573        O  0.20067377  0.34301027  0.25083149    -0.85060
O574        O  0.10056811  0.31117388  0.25108051    -0.85350
O575        O  0.05393929  0.23556116  0.21233362    -0.86690
Zr576      Zr  0.17318548  0.34637790  0.22219918     2.83100
Zr577      Zr  0.11502555  0.25228388  0.17468818     2.83500
Zr578      Zr  0.12554784  0.32840968  0.17529664     2.84090
Zr579      Zr  0.16244755  0.27047632  0.22183224     2.83360
Zr580      Zr  0.09667273  0.28063423  0.22247693     2.84220
O581        O  0.11489735  0.25172775  0.21033617    -1.07260
O582        O  0.12569093  0.32807662  0.21082103    -1.06770
C583        C  0.12089553  0.33541737  0.25810953     1.07890
C584        C  0.04739822  0.21703734  0.19778570     1.10510
C585        C  0.15481985  0.39441187  0.20026812     1.08070
C586        C  0.20413398  0.32257266  0.25833067     1.08430
C587        C  0.12993617  0.20300742  0.19860256     1.08010
C588        C  0.08589061  0.27749596  0.13817968     1.07560
C589        C  0.06055824  0.31164568  0.19917611     1.07990
C590        C  0.10928094  0.24023337  0.25871882     1.07500
H591        H  0.07703915  0.27348659  0.18183132     0.34180
O592        O  0.09650033  0.28095745  0.18680075    -1.28360
H593        H  0.14439432  0.29917059  0.24878585     0.34200
O594        O  0.14416419  0.29915146  0.23409591    -1.29750
O595        O  0.98643133  0.01581374  0.58541815    -0.85190
O596        O  0.40612207  0.38248253  0.51905023    -0.85350
O597        O  0.40118062  0.45951817  0.54679001    -0.87020
O598        O  0.43511950  0.41785376  0.58596595    -0.85780
O599        O  0.47332768  0.40949879  0.58445748    -0.85370
O600        O  0.41801125  0.98791383  0.51811196    -0.86740
O601        O  0.39702771  0.39889991  0.54889687    -0.85220
O602        O  0.44011847  0.47732017  0.58488416    -0.84800
Zr603      Zr  0.43735790  0.44662350  0.55649534     2.84310
O604        O  0.45556257  0.41786616  0.54394199    -1.06780
O605        O  0.46535452  0.99410398  0.54474269    -1.07510
C606        C  0.46045419  0.00105096  0.59259095     1.07920
C607        C  0.39041136  0.37986560  0.53475747     1.07860
C608        C  0.39887606  0.47424723  0.53206662     1.10850
C609        C  0.45016392  0.40680721  0.59273369     1.08630
H610        H  0.41678100  0.43852825  0.51601305     0.34180
O611        O  0.43640884  0.44662398  0.52079825    -1.27730
H612        H  0.48524960  0.46485484  0.58283484     0.33860
O613        O  0.48472606  0.46474265  0.56814667    -1.29410
O614        O  0.48221200  0.41485418  0.48005505    -0.85180
O615        O  0.06245203  0.04664411  0.54750583    -0.86680
O616        O  0.43497829  0.46830274  0.47997212    -0.85260
O617        O  0.48888790  0.38722233  0.54471092    -0.85310
O618        O  0.03700796  0.46350872  0.58223926    -0.85020
O619        O  0.98073064  0.04413009  0.51814555    -0.84820
O620        O  0.03542609  0.01621206  0.48027602    -0.85200
O621        O  0.06679610  0.47021683  0.51774125    -0.84660
O622        O  0.99475962  0.02052143  0.47985637    -0.85720
O623        O  0.04891915  0.43999646  0.54543226    -0.84880
O624        O  0.42878158  0.42265440  0.47901572    -0.85280
O625        O  0.00961490  0.05407014  0.54623934    -0.85000
O626        O  0.04141018  0.00846381  0.58371612    -0.84650
O627        O  0.45972790  0.37629981  0.51652967    -0.85060
O628        O  0.02792543  0.45450950  0.47956915    -0.85350
O629        O  0.07420669  0.02945337  0.51923862    -0.86690
Zr630      Zr  0.45503044  0.41836181  0.50831161     2.83100
Zr631      Zr  0.01271378  0.01197630  0.55623484     2.83500
Zr632      Zr  0.46513323  0.99411717  0.50904759     2.84090
Zr633      Zr  0.00309005  0.43621770  0.55526750     2.83360
Zr634      Zr  0.03149699  0.48461968  0.50841284     2.84220
O635        O  0.03143241  0.48372970  0.54388286    -1.07260
O636        O  0.48393249  0.46586494  0.49665981    -1.06770
C637        C  0.00793142  0.42995777  0.47268275     1.07890
C638        C  0.08020473  0.04813743  0.53360964     1.10510
C639        C  0.42453576  0.44290422  0.47206238     1.08070
C640        C  0.47343325  0.37037520  0.53015353     1.08430
C641        C  0.04742912  0.48908797  0.58978182     1.08010
C642        C  0.99701468  0.06105979  0.53242886     1.07560
C643        C  0.01949527  0.02584856  0.47277423     1.07990
C644        C  0.06822926  0.45388586  0.53165068     1.07500
H645        H  0.02455866  0.03246402  0.51588775     0.34180
O646        O  0.01269494  0.01287273  0.52064823    -1.28360
H647        H  0.01056868  0.42542830  0.51464005     0.34200
O648        O  0.00269958  0.43698424  0.51973923    -1.29750
C649        C  0.49248808  0.02606380  0.93591757     0.24900
C650        C  0.50742697  0.04057428  0.95356850    -0.23210
C651        C  0.02843780  0.06995084  0.95254257     0.19810
C652        C  0.03366943  0.08499469  0.93414888     0.24840
C653        C  0.51817945  0.07066078  0.91651611    -0.23150
C654        C  0.49795489  0.04093137  0.91749103     0.19740
F655        F  0.48310696  0.02644377  0.90062911    -0.13110
F656        F  0.47256909  0.49745726  0.93657615    -0.15470
F657        F  0.05256802  0.11386426  0.93384629    -0.15480
F658        F  0.04279650  0.08433068  0.96956286    -0.13110
C659        C  0.43647380  0.11383731  0.85057420     0.24900
C660        C  0.42145698  0.11501018  0.86785462    -0.23210
C661        C  0.43165420  0.11337881  0.88717721     0.19810
C662        C  0.45614713  0.11090718  0.88943629     0.24840
C663        C  0.47074465  0.10869474  0.87232724    -0.23150
C664        C  0.46077154  0.11038055  0.85278834     0.19740
F665        F  0.47403369  0.10800986  0.83588924    -0.13110
F666        F  0.42718965  0.11517775  0.83159487    -0.15470
F667        F  0.46600965  0.11148713  0.90858710    -0.15480
F668        F  0.41835964  0.11506532  0.90414670    -0.13110
C669        C  0.09158227  0.18434974  0.80177192     0.24900
C670        C  0.10895087  0.19814228  0.81884158    -0.23210
C671        C  0.13142553  0.22697463  0.81713979     0.19810
C672        C  0.13718204  0.24135852  0.79846064     0.24840
C673        C  0.12036061  0.22720175  0.78131252    -0.23150
C674        C  0.09713388  0.19887349  0.78317800     0.19740
F675        F  0.08082231  0.18476967  0.76670320    -0.13110
F676        F  0.07052291  0.15616477  0.80273360    -0.15470
F677        F  0.15912331  0.26911847  0.79709292    -0.15480
F678        F  0.14823454  0.24088130  0.83346526    -0.13110
C679        C  0.16908403  0.15255493  0.84037449     0.24900
C680        C  0.15289949  0.15156437  0.85757277    -0.23210
C681        C  0.16162539  0.14734682  0.87686396     0.19810
C682        C  0.18624977  0.14457095  0.87887025     0.24840
C683        C  0.20309189  0.14686687  0.86169214    -0.23150
C684        C  0.19422877  0.15110163  0.84246370     0.19740
F685        F  0.20966190  0.15349826  0.82544757    -0.13110
F686        F  0.16041187  0.15463534  0.82132717    -0.15470
F687        F  0.19407075  0.14058223  0.89770291    -0.15480
F688        F  0.14691284  0.14684295  0.89384647    -0.13110
C689        C  0.07997468  0.26993712  0.10062468     0.24900
C690        C  0.06859135  0.27136613  0.11957239    -0.23210
C691        C  0.04101710  0.26835158  0.12055685     0.19810
C692        C  0.02529185  0.26478204  0.10277862     0.24840
C693        C  0.03670865  0.26357222  0.08378010    -0.23150
C694        C  0.06393758  0.26567157  0.08280861     0.19740
F695        F  0.07540821  0.26478267  0.06457757    -0.13110
F696        F  0.10708498  0.27400487  0.09931279    -0.15470
F697        F  0.99885457  0.26249187  0.10405889    -0.15480
F698        F  0.02927323  0.26867816  0.13877294    -0.13110
C699        C  0.47749851  0.31230726  0.05519538     0.24900
C700        C  0.99086477  0.30441044  0.04014838    -0.23210
C701        C  0.00084807  0.32087396  0.02221475     0.19810
C702        C  0.99872069  0.34580320  0.01985506     0.24840
C703        C  0.48660923  0.35437780  0.03542175    -0.23150
C704        C  0.47515445  0.33694422  0.05273608     0.19740
F705        F  0.46120632  0.34356820  0.06709383    -0.13110
F706        F  0.46701914  0.29626072  0.07239103    -0.15470
F707        F  0.00951039  0.36217696  0.00283396    -0.15480
F708        F  0.01388136  0.31359101  0.00751097    -0.13110
C709        C  0.48754937  0.10403690  0.03126007     0.24900
C710        C  0.46293212  0.07666822  0.03359593    -0.23210
C711        C  0.43568522  0.07436240  0.03546464     0.19810
C712        C  0.43288165  0.09896057  0.03395362     0.24840
C713        C  0.45736683  0.12625325  0.03057260    -0.23150
C714        C  0.48480254  0.12863560  0.02966814     0.19740
F715        F  0.50875471  0.15452227  0.02583963    -0.13110
F716        F  0.51409709  0.10672841  0.02938079    -0.15470
F717        F  0.40622515  0.09610471  0.03539748    -0.15480
F718        F  0.41184977  0.04829791  0.03885534    -0.13110
C719        C  0.40978474  0.18720072  0.97594019     0.24900
C720        C  0.42359179  0.17101452  0.97966690    -0.23210
C721        C  0.42092775  0.15064224  0.96502515     0.19810
C722        C  0.40304117  0.14474875  0.94823028     0.24840
C723        C  0.38958299  0.16106596  0.94417990    -0.23150
C724        C  0.39365875  0.18284104  0.95808501     0.19740
F725        F  0.38100653  0.19906139  0.95494131    -0.13110
F726        F  0.41089713  0.20647582  0.98985182    -0.15470
F727        F  0.39875549  0.12258611  0.93606816    -0.15480
F728        F  0.43576474  0.13625222  0.96679035    -0.13110
C729        C  0.99818846  0.31528051  0.17559280     0.24900
C730        C  0.48351850  0.31766390  0.19257442    -0.23210
C731        C  0.99396229  0.31728597  0.21218857     0.19810
C732        C  0.01892951  0.31504318  0.21461173     0.24840
C733        C  0.03411417  0.31388049  0.19743346    -0.23150
C734        C  0.02347281  0.31425118  0.17795845     0.19740
F735        F  0.03730740  0.31311802  0.16098312    -0.13110
F736        F  0.48776814  0.31344005  0.15649464    -0.15470
F737        F  0.02881434  0.31510373  0.23364909    -0.15480
F738        F  0.48054864  0.31991557  0.22891185    -0.13110
C739        C  0.42253190  0.37208672  0.14522836     0.24900
C740        C  0.43708689  0.35638528  0.14783457    -0.23210
C741        C  0.45438178  0.35609750  0.13176574     0.19810
C742        C  0.45920905  0.37295157  0.11453878     0.24840
C743        C  0.44517808  0.38902122  0.11196832    -0.23150
C744        C  0.42613594  0.38782700  0.12725752     0.19740
F745        F  0.41216105  0.40302657  0.12530150    -0.13110
F746        F  0.40572803  0.37319320  0.16027901    -0.15470
F747        F  0.97790688  0.37349560  0.10034760    -0.15480
F748        F  0.46665529  0.33921982  0.13252022    -0.13110
C749        C  0.35731068  0.22373153  0.25494584     0.24900
C750        C  0.35161503  0.24671058  0.25541740    -0.23210
C751        C  0.34256096  0.25327234  0.27374395     0.19810
C752        C  0.33829904  0.23651534  0.29110922     0.24840
C753        C  0.34342543  0.21321411  0.29049786    -0.23150
C754        C  0.35343274  0.20722326  0.27242340     0.19740
F755        F  0.35790887  0.18440983  0.27140832    -0.13110
F756        F  0.36511334  0.21630879  0.23729307    -0.15470
F757        F  0.32921982  0.24305802  0.30856840    -0.15480
F758        F  0.33765080  0.27581522  0.27475978    -0.13110
C759        C  0.25045219  0.25756919  0.20587022     0.24900
C760        C  0.25334369  0.28409706  0.19980109    -0.23210
C761        C  0.28111723  0.30767025  0.19618797     0.19810
C762        C  0.30559008  0.30511733  0.19964213     0.24840
C763        C  0.30263736  0.27863076  0.20612115    -0.23150
C764        C  0.27474736  0.25467154  0.20853424     0.19740
F765        F  0.27095189  0.22842111  0.21376292    -0.13110
F766        F  0.22403249  0.23442034  0.20957410    -0.15470
F767        F  0.33212454  0.32900384  0.19780440    -0.15480
F768        F  0.28467556  0.33370025  0.19062087    -0.13110
C769        C  0.20159093  0.39336485  0.58910161     0.24900
C770        C  0.18860911  0.41055764  0.58689441    -0.23210
C771        C  0.17225222  0.41197833  0.60322664     0.19810
C772        C  0.16741174  0.39525158  0.62068229     0.24840
C773        C  0.17959238  0.37737727  0.62262669    -0.23150
C774        C  0.19752670  0.37734981  0.60693680     0.19740
F775        F  0.21024616  0.36094633  0.60847005    -0.13110
F776        F  0.21717406  0.39098941  0.57367626    -0.15470
F777        F  0.15105150  0.39690052  0.63586523    -0.15480
F778        F  0.16100226  0.42978090  0.60241206    -0.13110
C779        C  0.11958731  0.47348876  0.54145375     0.24900
C780        C  0.09446101  0.45148253  0.53233819    -0.23210
C781        C  0.09413650  0.42656559  0.52521676     0.19810
C782        C  0.11842852  0.42335567  0.52767321     0.24840
C783        C  0.14339327  0.44524935  0.53705567    -0.23150
C784        C  0.14394462  0.47046471  0.54370704     0.19740
F785        F  0.16765721  0.49152566  0.55329563    -0.13110
F786        F  0.12002700  0.49727742  0.54905170    -0.15470
F787        F  0.11743093  0.39872667  0.52131941    -0.15480
F788        F  0.07019152  0.40523165  0.51616854    -0.13110
C789        C  0.30467242  0.05170408  0.47967964     0.24900
C790        C  0.27957211  0.02453198  0.48191499    -0.23210
C791        C  0.25820951  0.01490697  0.46667417     0.19810
C792        C  0.26222849  0.03180569  0.44933781     0.24840
C793        C  0.28782204  0.05843315  0.44678687    -0.23150
C794        C  0.30883650  0.06837829  0.46224507     0.19740
F795        F  0.33339909  0.09441592  0.46052272    -0.13110
F796        F  0.32523328  0.06213168  0.49441715    -0.15470
F797        F  0.24178768  0.02142182  0.43454187    -0.15480
F798        F  0.23410115  0.48846613  0.46804870    -0.13110
C799        C  0.32708166  0.45986931  0.51164706     0.24900
C800        C  0.32093807  0.47718540  0.52434514    -0.23210
C801        C  0.33976456  0.99235809  0.54045881     0.19810
C802        C  0.36501877  0.99097156  0.54339751     0.24840
C803        C  0.37153510  0.47432507  0.53028343    -0.23150
C804        C  0.35208666  0.45822276  0.51474532     0.19740
F805        F  0.35736043  0.44084004  0.50263141    -0.13110
F806        F  0.30906511  0.44495721  0.49607308    -0.15470
F807        F  0.38357463  0.00660225  0.55852677    -0.15480
F808        F  0.33422380  0.00936858  0.55278745    -0.13110
C809        C  0.15035722  0.45699616  0.70361835     0.24900
C810        C  0.12612324  0.45513978  0.69371037    -0.23210
C811        C  0.10298465  0.42764627  0.68854998     0.19810
C812        C  0.10531021  0.40299803  0.69132132     0.24840
C813        C  0.13041005  0.40516312  0.69996884    -0.23150
C814        C  0.15216007  0.43218880  0.70709809     0.19740
F815        F  0.17605643  0.43500245  0.71642848    -0.13110
F816        F  0.17329758  0.48299009  0.70873459    -0.15470
F817        F  0.08303172  0.37702538  0.68537173    -0.15480
F818        F  0.07824487  0.42462232  0.68044047    -0.13110
C819        C  0.10808863  0.49581123  0.62314056     0.24900
C820        C  0.10337186  0.50728165  0.64103615    -0.23210
C821        C  0.08129175  0.51425901  0.64145797     0.19810
C822        C  0.06373444  0.50912346  0.62449608     0.24840
C823        C  0.06761303  0.49660024  0.60693081    -0.23150
C824        C  0.09016234  0.49029301  0.60624503     0.19740
F825        F  0.09469208  0.47864479  0.58927528    -0.13110
F826        F  0.12967405  0.48944497  0.62219621    -0.15470
F827        F  0.04165452  0.51457520  0.62573830    -0.15480
F828        F  0.07537777  0.52416142  0.65878188    -0.13110
C829        C  0.18889292  0.16272868  0.70939276     0.24900
C830        C  0.16369872  0.13540513  0.70760529    -0.23210
C831        C  0.13757775  0.13404541  0.70221983     0.19810
C832        C  0.13653845  0.15943455  0.69932739     0.24840
C833        C  0.16132575  0.18661079  0.70239833    -0.23150
C834        C  0.18758940  0.18802431  0.70718892     0.19740
F835        F  0.21210104  0.21394484  0.70957236    -0.13110
F836        F  0.21487834  0.16497995  0.71340701    -0.15470
F837        F  0.11090393  0.15739982  0.69452692    -0.15480
F838        F  0.11271168  0.10824531  0.70081713    -0.13110
C839        C  0.22384366  0.08419526  0.75240000     0.24900
C840        C  0.19890840  0.08667440  0.75365510    -0.23210
C841        C  0.19107638  0.09342586  0.77240139     0.19810
C842        C  0.20881670  0.09934053  0.78932829     0.24840
C843        C  0.23455915  0.09859231  0.78776041    -0.23150
C844        C  0.24155531  0.09002324  0.76945533     0.19740
F845        F  0.26612836  0.08855939  0.76789656    -0.13110
F846        F  0.23183822  0.07770402  0.73445469    -0.15470
F847        F  0.20071224  0.10540888  0.80736368    -0.15480
F848        F  0.16640710  0.09468022  0.77419504    -0.13110
C849        C  0.36122188  0.00314646  0.36996941     0.24900
C850        C  0.33664708  0.47526938  0.36999754    -0.23210
C851        C  0.30921492  0.47243291  0.36712250     0.19810
C852        C  0.30635679  0.99692153  0.36504034     0.24840
C853        C  0.33076383  0.02469055  0.36619077    -0.23150
C854        C  0.35825662  0.02762411  0.36834286     0.19740
F855        F  0.38225635  0.05423809  0.36889913    -0.13110
F856        F  0.38812424  0.00670762  0.37182054    -0.15470
F857        F  0.27950924  0.99351903  0.36321342    -0.15480
F858        F  0.28493416  0.44604287  0.36765827    -0.13110
C859        C  0.36961669  0.44320622  0.43569098     0.24900
C860        C  0.37128884  0.42796888  0.41876228    -0.23210
C861        C  0.38994055  0.41645734  0.41984928     0.19810
C862        C  0.40674956  0.42051610  0.43734832     0.24840
C863        C  0.40578817  0.43678661  0.45386605    -0.23150
C864        C  0.38710562  0.44815068  0.45271746     0.19740
F865        F  0.38567182  0.46419005  0.46817009    -0.13110
F866        F  0.35089009  0.45339434  0.43583877    -0.15470
F867        F  0.42508162  0.40986572  0.43768083    -0.15480
F868        F  0.39291558  0.40241586  0.40365435    -0.13110
C869        C  0.27244415  0.26626436  0.35598655     0.24900
C870        C  0.29714377  0.29382900  0.35826879    -0.23210
C871        C  0.32260122  0.29559912  0.36599352     0.19810
C872        C  0.32346871  0.27046399  0.37059824     0.24840
C873        C  0.29961716  0.24306810  0.36642595    -0.23150
C874        C  0.27390958  0.24128997  0.35952165     0.19740
F875        F  0.24999095  0.21526379  0.35627293    -0.13110
F876        F  0.24667717  0.26334959  0.35033318    -0.15470
F877        F  0.34813715  0.27301917  0.37831345    -0.15480
F878        F  0.34715394  0.32150358  0.36819219    -0.13110
C879        C  0.23113077  0.31180753  0.30916216     0.24900
C880        C  0.25647324  0.33865362  0.31238247    -0.23210
C881        C  0.26342064  0.36095546  0.29814769     0.19810
C882        C  0.24605739  0.35612052  0.28084861     0.24840
C883        C  0.22174014  0.32872410  0.27717378    -0.23150
C884        C  0.21434632  0.30679724  0.29170031     0.19740
F885        F  0.19045020  0.28041388  0.28919341    -0.13110
F886        F  0.22231201  0.29021109  0.32305932    -0.15470
F887        F  0.25379687  0.37790995  0.26725231    -0.15480
F888        F  0.28768154  0.38707162  0.30043620    -0.13110
C889        C  0.44674647  0.01082438  0.12810826     0.24900
C890        C  0.42891981  0.49647139  0.11133440    -0.23210
C891        C  0.39936770  0.48750504  0.11231275     0.19810
C892        C  0.38765424  0.49216481  0.12985280     0.24840
C893        C  0.40506961  0.50523180  0.14706921    -0.23150
C894        C  0.43486069  0.01497430  0.14593277     0.19740
F895        F  0.45221594  0.02735003  0.16230527    -0.13110
F896        F  0.47537338  0.01957624  0.12759341    -0.15470
F897        F  0.35913556  0.48395675  0.12995572    -0.15480
F898        F  0.38178278  0.47444601  0.09613430    -0.13110
C899        C  0.29292689  0.40974651  0.20234696     0.24900
C900        C  0.26760908  0.40985674  0.19695132    -0.23210
C901        C  0.26924301  0.43554288  0.19022752     0.19810
C902        C  0.29602633  0.46084446  0.18855877     0.24840
C903        C  0.32149390  0.46063649  0.19343821    -0.23150
C904        C  0.31977506  0.43499778  0.20053059     0.19740
F905        F  0.34417393  0.43438735  0.20533322    -0.13110
F906        F  0.29160152  0.38518343  0.20923717    -0.15470
F907        F  0.29726820  0.48511764  0.18108798    -0.15480
F908        F  0.24498859  0.43570905  0.18434260    -0.13110
C909        C  0.35456118  0.11059372  0.26979467     0.24900
C910        C  0.36065668  0.10302456  0.28880564    -0.23210
C911        C  0.37786756  0.09007344  0.29007123     0.19810
C912        C  0.38948026  0.08533603  0.27237124     0.24840
C913        C  0.38388921  0.09353831  0.25337555    -0.23150
C914        C  0.36616800  0.10592710  0.25215909     0.19740
F915        F  0.36064518  0.11401874  0.23388413    -0.13110
F916        F  0.33770526  0.12287419  0.26839924    -0.15470
F917        F  0.40688376  0.07368049  0.27377475    -0.15480
F918        F  0.38399443  0.08279648  0.30844665    -0.13110
C919        C  0.46670344  0.17042067  0.20610154     0.24900
C920        C  0.46238869  0.14250253  0.20263653    -0.23210
C921        C  0.48567273  0.13984001  0.19517473     0.19810
C922        C  0.01289156  0.16430856  0.19239362     0.24840
C923        C  0.01774070  0.19183507  0.19772762    -0.23150
C924        C  0.99419047  0.19475701  0.20403021     0.19740
F925        F  0.99779432  0.22121376  0.20827451    -0.13110
F926        F  0.44439622  0.17417106  0.21187077    -0.15470
F927        F  0.03493979  0.16080072  0.18567384    -0.15480
F928        F  0.48276767  0.11345904  0.19188192    -0.13110
C929        C  0.47996101  0.14491350  0.37479959     0.24900
C930        C  0.49042496  0.14620639  0.35492286    -0.23210
C931        C  0.47340060  0.14546866  0.33833018     0.19810
C932        C  0.44724904  0.14471450  0.34146348     0.24840
C933        C  0.43693571  0.14394189  0.36129039    -0.23150
C934        C  0.45331714  0.14354661  0.37795324     0.19740
F935        F  0.44408441  0.14288730  0.39729503    -0.13110
F936        F  0.49598741  0.14608851  0.39118217    -0.15470
F937        F  0.43170211  0.14412622  0.32493286    -0.15480
F938        F  0.48192845  0.14517168  0.31890399    -0.13110
C939        C  0.09233253  0.19431207  0.27801847     0.24900
C940        C  0.09968736  0.22345194  0.27770258    -0.23210
C941        C  0.09834242  0.23669490  0.29576820     0.19810
C942        C  0.08838954  0.22066322  0.31374635     0.24840
C943        C  0.07986353  0.19117165  0.31392854    -0.23150
C944        C  0.08238081  0.17822717  0.29601073     0.19740
F945        F  0.07352933  0.14960213  0.29565139    -0.13110
F946        F  0.09355500  0.18115265  0.26068957    -0.15470
F947        F  0.08652489  0.23373922  0.33091762    -0.15480
F948        F  0.10696889  0.26523926  0.29600146    -0.13110
C949        C  0.07111318  0.08248739  0.43593967     0.24900
C950        C  0.05322177  0.07782049  0.41896267    -0.23210
C951        C  0.02357655  0.05740656  0.42040593     0.19810
C952        C  0.01233316  0.04104755  0.43818095     0.24840
C953        C  0.03064596  0.04459828  0.45465632    -0.23150
C954        C  0.06000912  0.06581951  0.45350773     0.19740
F955        F  0.07800101  0.07045299  0.46944472    -0.13110
F956        F  0.09956219  0.10295544  0.43538099    -0.15470
F957        F  0.48389735  0.02057499  0.43883542    -0.15480
F958        F  0.50583974  0.05207076  0.40420393    -0.13110
C959        C  0.18255794  0.13551139  0.36132522     0.24900
C960        C  0.18736304  0.11264110  0.36620762    -0.23210
C961        C  0.16350078  0.08544438  0.37080478     0.19810
C962        C  0.13558109  0.08160115  0.37139549     0.24840
C963        C  0.13106783  0.10512639  0.36804658    -0.23150
C964        C  0.15484454  0.13194349  0.36247360     0.19740
F965        F  0.15174224  0.15537990  0.35953713    -0.13110
F966        F  0.20499788  0.16195967  0.35660946    -0.15470
F967        F  0.11298635  0.05495746  0.37566762    -0.15480
F968        F  0.16718131  0.06254856  0.37469380    -0.13110
C969        C  0.34685827  0.47389516  0.02766385     0.24900
C970        C  0.35102826  0.45039221  0.03166716    -0.23210
C971        C  0.32687578  0.42350377  0.03636808     0.19810
C972        C  0.29943985  0.42044145  0.03817331     0.24840
C973        C  0.29564645  0.44451245  0.03594732    -0.23150
C974        C  0.31954972  0.47114988  0.03011652     0.19740
F975        F  0.31697859  0.49502566  0.02805158    -0.13110
F976        F  0.36950394  0.49998864  0.02246611    -0.15470
F977        F  0.27660751  0.39395030  0.04247792    -0.15480
F978        F  0.32980861  0.40005795  0.03918564    -0.13110
C979        C  0.23313289  0.41841973  0.10412934     0.24900
C980        C  0.21634701  0.41349507  0.08651323    -0.23210
C981        C  0.18689466  0.39214075  0.08688221     0.19810
C982        C  0.17476976  0.37529926  0.10433703     0.24840
C983        C  0.19202122  0.37934905  0.12153698    -0.23150
C984        C  0.22113686  0.40134206  0.12141731     0.19740
F985        F  0.23796267  0.40634466  0.13812071    -0.13110
F986        F  0.26127621  0.43969067  0.10453307    -0.15470
F987        F  0.14662809  0.35399969  0.10404691    -0.15480
F988        F  0.17026752  0.38653421  0.07000254    -0.13110
C989        C  0.21974281  0.02184888  0.96344290     0.24900
C990        C  0.23732743  0.02375065  0.98004857    -0.23210
C991        C  0.26759151  0.04079411  0.97798210     0.19810
C992        C  0.27983918  0.05584231  0.95985572     0.24840
C993        C  0.26205915  0.05471663  0.94367422    -0.23150
C994        C  0.23192005  0.03745205  0.94565516     0.19740
F995        F  0.21408436  0.03525539  0.93017168    -0.13110
F996        F  0.19059228  0.00437782  0.96418863    -0.15470
F997        F  0.30903038  0.07249810  0.95848595    -0.15480
F998        F  0.28535001  0.04380059  0.99371045    -0.13110
C999        C  0.12439026  0.00473071  0.03721505     0.24900
C1000       C  0.09932433  0.47862725  0.03249195    -0.23210
C1001       C  0.10158303  0.45504956  0.02556425     0.19810
C1002       C  0.12874680  0.45773601  0.02285948     0.24840
C1003       C  0.15394051  0.98402191  0.02714549    -0.23150
C1004       C  0.15160690  0.00740876  0.03460067     0.19740
F1005       F  0.17569412  0.03287814  0.03905635    -0.13110
F1006       F  0.12243661  0.02762073  0.04412261    -0.15470
F1007       F  0.13053529  0.43521289  0.01499995    -0.15480
F1008       F  0.07750176  0.42993322  0.02043242    -0.13110
C1009       C  0.21514410  0.24031621  0.60477461     0.24900
C1010       C  0.22153436  0.25830858  0.58764267    -0.23210
C1011       C  0.21394711  0.27992454  0.58764985     0.19810
C1012       C  0.20096425  0.28407922  0.60475021     0.24840
C1013       C  0.19550909  0.26683732  0.62213438    -0.23150
C1014       C  0.20216150  0.24454600  0.62194168     0.19740
F1015       F  0.19743500  0.22789292  0.63870411    -0.13110
F1016       F  0.22278610  0.21963422  0.60522798    -0.15470
F1017       F  0.19348368  0.30484431  0.60433501    -0.15480
F1018       F  0.21925499  0.29708305  0.57109677    -0.13110
C1019       C  0.33153270  0.31257867  0.55964871     0.24900
C1020       C  0.30980347  0.30196810  0.54476238    -0.23210
C1021       C  0.31510547  0.31644006  0.52598494     0.19810
C1022       C  0.34169152  0.34156513  0.52234540     0.24840
C1023       C  0.36308003  0.35250689  0.53751654    -0.23150
C1024       C  0.35790213  0.33764719  0.55607726     0.19740
F1025       F  0.37853335  0.34744617  0.57076544    -0.13110
F1026       F  0.32708085  0.29867065  0.57773263    -0.15470
F1027       F  0.34601557  0.35595850  0.50448761    -0.15480
F1028       F  0.29409009  0.30697650  0.51159761    -0.13110
C1029       C  0.14137275  0.12555347  0.53661448     0.24900
C1030       C  0.16540075  0.12261193  0.53169868    -0.23210
C1031       C  0.16145878  0.09471115  0.52922061     0.19810
C1032       C  0.13378554  0.07045903  0.53000392     0.24840
C1033       C  0.10964009  0.07351051  0.53404622    -0.23150
C1034       C  0.11377976  0.10118316  0.53797823     0.19740
F1035       F  0.09083620  0.10485104  0.54175417    -0.13110
F1036       F  0.14421063  0.15211365  0.53864671    -0.15470
F1037       F  0.13057014  0.04400552  0.52655511    -0.15480
F1038       F  0.18438276  0.09100695  0.52543752    -0.13110
C1039       C  0.28332662  0.17076658  0.46365572     0.24900
C1040       C  0.26703796  0.16221141  0.44565960    -0.23210
C1041       C  0.23913449  0.15856916  0.44555614     0.19810
C1042       C  0.22766431  0.16331442  0.46327193     0.24840
C1043       C  0.24395762  0.17174018  0.48131797    -0.23150
C1044       C  0.27199505  0.17574578  0.48134248     0.19740
F1045       F  0.28766075  0.18271011  0.49880139    -0.13110
F1046       F  0.30928760  0.17217552  0.46449916    -0.15470
F1047       F  0.20048035  0.15927901  0.46293960    -0.15480
F1048       F  0.22293814  0.15017821  0.42833242    -0.13110
C1049       C  0.34348364  0.20644421  0.77045247     0.24900
C1050       C  0.36140756  0.20820639  0.78674438    -0.23210
C1051       C  0.39134608  0.22709762  0.78527324     0.19810
C1052       C  0.40328629  0.24326882  0.76766884     0.24840
C1053       C  0.38566662  0.24039064  0.75086538    -0.23150
C1054       C  0.35555328  0.22226864  0.75257269     0.19740
F1055       F  0.33795286  0.21883208  0.73663372    -0.13110
F1056       F  0.31445771  0.18835587  0.77143968    -0.15470
F1057       F  0.43224225  0.26182680  0.76708350    -0.15480
F1058       F  0.40914230  0.23013998  0.80100882    -0.13110
C1059       C  0.01506255  0.28760252  0.71955088     0.24900
C1060       C  0.02420184  0.28194481  0.70099744    -0.23210
C1061       C  0.50564186  0.27358102  0.68403994     0.19810
C1062       C  0.47788371  0.27012532  0.68589045     0.24840
C1063       C  0.46864695  0.27530818  0.70465593    -0.23150
C1064       C  0.48778207  0.28464939  0.72129849     0.19740
F1065       F  0.48011452  0.29124944  0.73934068    -0.13110
F1066       F  0.03286846  0.29659028  0.73598664    -0.15470
F1067       F  0.45978234  0.26085392  0.66964513    -0.15480
F1068       F  0.01396347  0.26771018  0.66599310    -0.13110
C1069       C  0.28155861  0.30803435  0.67546251     0.24900
C1070       C  0.27182079  0.30866024  0.69526860    -0.23210
C1071       C  0.28937185  0.31082875  0.71192566     0.19810
C1072       C  0.31655281  0.31333720  0.70873069     0.24840
C1073       C  0.32646240  0.31337675  0.68883862    -0.23150
C1074       C  0.30837567  0.31016882  0.67231035     0.19740
F1075       F  0.31649788  0.30868768  0.65296980    -0.13110
F1076       F  0.26481720  0.30480805  0.65900774    -0.15470
F1077       F  0.33360771  0.31680843  0.72502776    -0.15480
F1078       F  0.28075927  0.31167356  0.73122242    -0.13110
C1079       C  0.42819819  0.38770814  0.64760919     0.24900
C1080       C  0.41604102  0.35757770  0.64731323    -0.23210
C1081       C  0.41672039  0.34390293  0.62922272     0.19810
C1082       C  0.42875394  0.36008819  0.61150907     0.24840
C1083       C  0.44005646  0.39007895  0.61167660    -0.23150
C1084       C  0.44010016  0.40386668  0.62987014     0.19740
F1085       F  0.45147524  0.43295653  0.63035457    -0.13110
F1086       F  0.42811775  0.40134086  0.66500252    -0.15470
F1087       F  0.42806039  0.34636731  0.59396194    -0.15480
F1088       F  0.40436947  0.31471425  0.62848970    -0.13110
C1089       C  0.15442053  0.47179368  0.86529170     0.24900
C1090       C  0.13034445  0.47539161  0.86859974    -0.23210
C1091       C  0.13454548  0.00358588  0.86884822     0.19810
C1092       C  0.16238125  0.02760343  0.86696808     0.24840
C1093       C  0.18647987  0.02390486  0.86445461    -0.23150
C1094       C  0.18214202  0.99579994  0.86308321     0.19740
F1095       F  0.20503056  0.49155277  0.86096936    -0.13110
F1096       F  0.15144501  0.44505177  0.86556293    -0.15470
F1097       F  0.16583082  0.05453195  0.86767351    -0.15480
F1098       F  0.11173582  0.00789072  0.87119685    -0.13110
C1099       C  0.02100046  0.41249793  0.92265295     0.24900
C1100       C  0.05124294  0.42705801  0.91983935    -0.23210
C1101       C  0.06890083  0.44457029  0.93587815     0.19810
C1102       C  0.05679597  0.44915145  0.95337666     0.24840
C1103       C  0.02660681  0.43549160  0.95586120    -0.23150
C1104       C  0.00889719  0.41623844  0.94059974     0.19740
F1105       F  0.47973866  0.40179401  0.94262556    -0.13110
F1106       F  0.50295285  0.39561292  0.90768868    -0.15470
F1107       F  0.07484210  0.46681157  0.96807462    -0.15480
F1108       F  0.09812560  0.45725042  0.93479330    -0.13110
C1109       C  0.46402842  0.29457990  0.85743657     0.24900
C1110       C  0.48985973  0.29368748  0.85686202    -0.23210
C1111       C  0.48862441  0.26692612  0.85962323     0.19810
C1112       C  0.46207603  0.24154798  0.86237776     0.24840
C1113       C  0.43630868  0.24247006  0.86274186    -0.23150
C1114       C  0.43750764  0.26915433  0.86026929     0.19740
F1115       F  0.41278362  0.27027377  0.85916438    -0.13110
F1116       F  0.46427197  0.31975330  0.85409009    -0.15470
F1117       F  0.46150508  0.21602825  0.86462970    -0.15480
F1118       F  0.01320628  0.26534455  0.85952626    -0.13110
C1119       C  0.08926104  0.35912462  0.79824927     0.24900
C1120       C  0.07850627  0.33889969  0.81427248    -0.23210
C1121       C  0.08138432  0.31415909  0.81294469     0.19810
C1122       C  0.09326368  0.30896713  0.79559418     0.24840
C1123       C  0.10306660  0.32863429  0.77929505    -0.23150
C1124       C  0.10161091  0.35411656  0.78096960     0.19740
F1125       F  0.11065488  0.37338119  0.76538506    -0.13110
F1126       F  0.08633299  0.38290714  0.79878142    -0.15470
F1127       F  0.09528275  0.28466430  0.79474739    -0.15480
F1128       F  0.07235176  0.29475023  0.82844025    -0.13110
C1129       C  0.24783597  0.07633323  0.27225050     0.24900
C1130       C  0.23862508  0.08818868  0.28760279    -0.23210
C1131       C  0.21333820  0.08968444  0.28446980     0.19810
C1132       C  0.19674439  0.07805547  0.26678854     0.24840
C1133       C  0.20541456  0.06515183  0.25177279    -0.23150
C1134       C  0.23164900  0.06528845  0.25447351     0.19740
F1135       F  0.24160522  0.05449353  0.23988206    -0.13110
F1136       F  0.27275061  0.07561541  0.27437806    -0.15470
F1137       F  0.17145311  0.07806080  0.26489241    -0.15480
F1138       F  0.20387819  0.10105504  0.29898144    -0.13110
C1139       C  0.13279716  0.42630888  0.19978563     0.24900
C1140       C  0.15732134  0.42319001  0.20168417    -0.23210
C1141       C  0.18414431  0.44764758  0.20601874     0.19810
C1142       C  0.18643850  0.47462226  0.20864527     0.24840
C1143       C  0.16168517  0.47763322  0.20793131    -0.23150
C1144       C  0.13484836  0.45317267  0.20317207     0.19740
F1145       F  0.11031456  0.45480889  0.20281580    -0.13110
F1146       F  0.10650718  0.40299578  0.19580928    -0.15470
F1147       F  0.21304406  0.49787882  0.21192176    -0.15480
F1148       F  0.20829099  0.44547317  0.20769084    -0.13110
C1149       C  0.05756414  0.49656031  0.12651120     0.24900
C1150       C  0.05414322  0.01406957  0.11202002    -0.23210
C1151       C  0.06873352  0.04415306  0.11520831     0.19810
C1152       C  0.08653135  0.05642484  0.13206458     0.24840
C1153       C  0.08859608  0.03895798  0.14727297    -0.23150
C1154       C  0.07416488  0.00881000  0.14414314     0.19740
F1155       F  0.07504053  0.49099353  0.15848699    -0.13110
F1156       F  0.04369273  0.46744309  0.12418246    -0.15470
F1157       F  0.10185194  0.08569347  0.13338429    -0.15480
F1158       F  0.06576829  0.06206992  0.10206192    -0.13110
C1159       C  0.09656701  0.12154180  0.19983304     0.24900
C1160       C  0.12109416  0.11862301  0.19686886    -0.23210
C1161       C  0.14839392  0.14364940  0.19522616     0.19810
C1162       C  0.15103023  0.17096950  0.19591234     0.24840
C1163       C  0.12659220  0.17391272  0.19851048    -0.23150
C1164       C  0.09934053  0.14902915  0.20071991     0.19740
F1165       F  0.07549293  0.15137006  0.20373892    -0.13110
F1166       F  0.06992422  0.09776882  0.20150455    -0.15470
F1167       F  0.17727141  0.19459701  0.19267315    -0.15480
F1168       F  0.17231607  0.14163630  0.19148939    -0.13110
C1169       C  0.16745972  0.47271895  0.34323805     0.24900
C1170       C  0.15568867  0.45380414  0.35988313    -0.23210
C1171       C  0.16783254  0.46322360  0.37930930     0.19810
C1172       C  0.19196430  0.49089955  0.38184192     0.24840
C1173       C  0.20433905  0.00921052  0.36492534    -0.23150
C1174       C  0.19162640  0.99993555  0.34568497     0.19740
F1175       F  0.20236202  0.01749841  0.32918466    -0.13110
F1176       F  0.15530900  0.46492779  0.32449660    -0.15470
F1177       F  0.20388092  0.49932411  0.40059071    -0.15480
F1178       F  0.15699457  0.44533331  0.39561673    -0.13110
C1179       C  0.12804089  0.37716774  0.27892482     0.24900
C1180       C  0.11499390  0.34714572  0.27652479    -0.23210
C1181       C  0.09820729  0.32883371  0.29242493     0.19810
C1182       C  0.09640358  0.34043595  0.31103639     0.24840
C1183       C  0.11032572  0.37058751  0.31369408    -0.23150
C1184       C  0.12529820  0.38874142  0.29714544     0.19740
F1185       F  0.13706403  0.41781521  0.29842350    -0.13110
F1186       F  0.14331029  0.39542216  0.26350565    -0.15470
F1187       F  0.08195690  0.32214965  0.32661572    -0.15480
F1188       F  0.08452892  0.29972123  0.29027883    -0.13110
C1189       C  0.50814659  0.37502298  0.43719865     0.24900
C1190       C  0.02271951  0.39208316  0.42019259    -0.23210
C1191       C  0.03469950  0.42224400  0.42123376     0.19810
C1192       C  0.03096907  0.43491648  0.43869606     0.24840
C1193       C  0.01478196  0.41752373  0.45512967    -0.23150
C1194       C  0.50395202  0.38758011  0.45441040     0.19740
F1195       F  0.48927576  0.37040116  0.47043599    -0.13110
F1196       F  0.49784688  0.34608917  0.43713895    -0.15470
F1197       F  0.04181110  0.46392862  0.43909654    -0.15480
F1198       F  0.04876019  0.43928475  0.40501633    -0.13110
C1199       C  0.44737321  0.30965026  0.36877773     0.24900
C1200       C  0.47454498  0.31178093  0.37100707    -0.23210
C1201       C  0.47647253  0.28650928  0.37030336     0.19810
C1202       C  0.45149575  0.25949734  0.36828063     0.24840
C1203       C  0.42424429  0.25734373  0.36707281    -0.23150
C1204       C  0.42244292  0.28261521  0.36679418     0.19740
F1205       F  0.39657635  0.28110416  0.36433535    -0.13110
F1206       F  0.44498825  0.33376403  0.36879235    -0.15470
F1207       F  0.45375613  0.23531420  0.36858033    -0.16680
F1208       F  0.50232152  0.28782605  0.37284129    -0.13110
C1209       C  0.12521842  0.13435323  0.02321313     0.24900
C1210       C  0.14049403  0.14063126  0.04168536    -0.23210
C1211       C  0.13050130  0.11979315  0.05719922     0.19810
C1212       C  0.10516361  0.09341407  0.05453846     0.24840
C1213       C  0.08912268  0.08763541  0.03652764    -0.23150
C1214       C  0.09963524  0.10791914  0.02063851     0.19740
F1215       F  0.08458428  0.10257263  0.00300632    -0.13110
F1216       F  0.13431851  0.15434936  0.00810699    -0.15470
F1217       F  0.09659842  0.07312282  0.06935196    -0.15480
F1218       F  0.14525887  0.12512171  0.07497889    -0.13110
C1219       C  0.15478772  0.22875139  0.08587629     0.24900
C1220       C  0.18173498  0.23092221  0.08200226    -0.23210
C1221       C  0.20445473  0.24622369  0.09592006     0.19810
C1222       C  0.19993034  0.25807187  0.11364250     0.24840
C1223       C  0.17241400  0.25418524  0.11806168    -0.23150
C1224       C  0.14999638  0.23954648  0.10387726     0.19740
F1225       F  0.12317728  0.23540059  0.10746143    -0.13110
F1226       F  0.13277684  0.21575176  0.07230224    -0.15470
F1227       F  0.22203211  0.27184653  0.12704094    -0.15480
F1228       F  0.23059272  0.24833474  0.09300735    -0.13110
C1229       C  0.25493866  0.18088260  0.94374690     0.24900
C1230       C  0.28102376  0.18051728  0.94202820    -0.23210
C1231       C  0.30126492  0.19208170  0.95786129     0.19810
C1232       C  0.29599225  0.20434519  0.97483939     0.24840
C1233       C  0.27061242  0.20615181  0.97623098    -0.23150
C1234       C  0.24985120  0.19382083  0.96064091     0.19740
F1235       F  0.22522747  0.19527483  0.96131773    -0.13110
F1236       F  0.23494870  0.16985505  0.92867887    -0.15470
F1237       F  0.31576901  0.21425916  0.99010542    -0.15480
F1238       F  0.32609990  0.19104690  0.95708540    -0.13110
C1239       C  0.36955545  0.31813742  0.02416992     0.24900
C1240       C  0.36735409  0.34135975  0.03210571    -0.23210
C1241       C  0.34003517  0.33652669  0.03815663     0.19810
C1242       C  0.31509625  0.31014238  0.03416224     0.24840
C1243       C  0.31710854  0.28736892  0.02509625    -0.23150
C1244       C  0.34480309  0.29128893  0.02113542     0.19740
F1245       F  0.34801154  0.26917133  0.01414984    -0.13110
F1246       F  0.39573660  0.32135319  0.01938928    -0.15470
F1247       F  0.28898858  0.30759487  0.03814997    -0.15480
F1248       F  0.33721574  0.35773557  0.04714646    -0.13110
C1249       C  0.06063114  0.25888392  0.58718212     0.24900
C1250       C  0.04280065  0.22894302  0.58459962    -0.23210
C1251       C  0.03897194  0.21038775  0.60097871     0.19810
C1252       C  0.05418981  0.22121237  0.61903785     0.24840
C1253       C  0.07289242  0.25099843  0.62140431    -0.23150
C1254       C  0.07546534  0.26987949  0.60553265     0.19740
F1255       F  0.09336111  0.29881738  0.60741576    -0.13110
F1256       F  0.06454799  0.27734446  0.57171925    -0.15470
F1257       F  0.05035031  0.20250386  0.63433018    -0.15480
F1258       F  0.02012670  0.18164093  0.59961317    -0.13110
C1259       C  0.00038518  0.10592943  0.51656800     0.24900
C1260       C  0.00133903  0.09064984  0.53377750    -0.23210
C1261       C  0.00649839  0.10392596  0.55291686     0.19810
C1262       C  0.00984644  0.13122057  0.55501836     0.24840
C1263       C  0.00957626  0.14715256  0.53794551    -0.23150
C1264       C  0.00488111  0.13410430  0.51858569     0.19740
F1265       F  0.00520869  0.14866045  0.50157153    -0.13110
F1266       F  0.49580754  0.09394156  0.49776013    -0.15470
F1267       F  0.01212337  0.14131211  0.57421787    -0.15480
F1268       F  0.00723828  0.09005498  0.57004515    -0.13110
C1269       C  0.49452544  0.31510218  0.51620253     0.24900
C1270       C  0.47130305  0.28970145  0.52407002    -0.23210
C1271       C  0.44881064  0.29092738  0.53430151     0.19810
C1272       C  0.44952674  0.31731455  0.53655940     0.24840
C1273       C  0.47256974  0.34260703  0.52839955    -0.23150
C1274       C  0.49500957  0.34135873  0.51822917     0.19740
F1275       F  0.01676906  0.36543900  0.50955422    -0.13110
F1276       F  0.01598924  0.31419422  0.50577806    -0.15470
F1277       F  0.42755569  0.31813792  0.54631763    -0.15480
F1278       F  0.42586297  0.26642016  0.54162936    -0.13110
C1279       C  0.43266157  0.18738332  0.46696526     0.24900
C1280       C  0.42517177  0.20190120  0.48151086    -0.23210
C1281       C  0.40024637  0.20397435  0.47820121     0.19810
C1282       C  0.38479384  0.19421114  0.46012312     0.24840
C1283       C  0.39215461  0.17978790  0.44554465    -0.23150
C1284       C  0.41592649  0.17590198  0.44934016     0.19740
F1285       F  0.42402151  0.16252621  0.43545255    -0.13110
F1286       F  0.45697124  0.18559791  0.46920385    -0.15470
F1287       F  0.36273344  0.19930474  0.45683110    -0.15480
F1288       F  0.39095153  0.21594956  0.49238942    -0.13110
C1289       C  0.35439413  0.30584566  0.87709360     0.24900
C1290       C  0.33056671  0.30959020  0.87321435    -0.23210
C1291       C  0.30519367  0.28622832  0.86508612     0.19810
C1292       C  0.30345822  0.25954321  0.86163298     0.24840
C1293       C  0.32667568  0.25541803  0.86686114    -0.23150
C1294       C  0.35215125  0.27893053  0.87455662     0.19740
F1295       F  0.37488849  0.27583040  0.88006325    -0.13110
F1296       F  0.37993277  0.32821042  0.88363449    -0.15470
F1297       F  0.27833366  0.23722492  0.85449878    -0.15480
F1298       F  0.28142776  0.28859383  0.86158438    -0.13110
C1299       C  0.35430231  0.40297858  0.93672936     0.24900
C1300       C  0.36432111  0.39193871  0.92127315    -0.23210
C1301       C  0.39239430  0.39603530  0.92264310     0.19810
C1302       C  0.40950711  0.40947627  0.93954903     0.24840
C1303       C  0.39919248  0.41948533  0.95534382    -0.23150
C1304       C  0.37176465  0.41685907  0.95364426     0.19740
F1305       F  0.36138211  0.42644080  0.96876442    -0.13110
F1306       F  0.32727191  0.39927502  0.93589096    -0.15470
F1307       F  0.43642672  0.41297013  0.94044069    -0.15480
F1308       F  0.40341039  0.38714890  0.90748652    -0.13110
C1309       C  0.21972880  0.35484217  0.81593832     0.24900
C1310       C  0.24878673  0.36222066  0.81794659    -0.23210
C1311       C  0.26306133  0.35810009  0.80139749     0.19810
C1312       C  0.24868228  0.34750664  0.78292659     0.24840
C1313       C  0.22004510  0.34129832  0.78073082    -0.23150
C1314       C  0.20547502  0.34454898  0.79740386     0.19740
F1315       F  0.17744100  0.33776832  0.79567972    -0.13110
F1316       F  0.20539031  0.35812156  0.83183009    -0.15470
F1317       F  0.26317840  0.34487855  0.76685699    -0.15480
F1318       F  0.29145367  0.36605727  0.80273294    -0.13110
C1319       C  0.29682873  0.46421815  0.87807785     0.24900
C1320       C  0.29281745  0.45198898  0.85848975    -0.23210
C1321       C  0.29146925  0.46762996  0.84173654     0.19810
C1322       C  0.29212700  0.99366722  0.84452207     0.24840
C1323       C  0.29670138  0.00636805  0.86393402    -0.23150
C1324       C  0.29935089  0.49146832  0.88071250     0.19740
F1325       F  0.30298414  0.00257600  0.89977691    -0.13110
F1326       F  0.29741391  0.44949343  0.89473412    -0.15470
F1327       F  0.28833694  0.00643730  0.82790524    -0.15480
F1328       F  0.28983509  0.45793822  0.82240685    -0.13110
C1329       C  0.01060034  0.12356689  0.69750814     0.24900
C1330       C  0.98566600  0.12318489  0.69020224    -0.23210
C1331       C  0.98601824  0.14936904  0.68732184     0.19810
C1332       C  0.01131809  0.17563986  0.69101464     0.24840
C1333       C  0.03647479  0.17597333  0.69764183    -0.23150
C1334       C  0.03583582  0.14981932  0.70122776     0.19740
F1335       F  0.05963911  0.14975447  0.70831531    -0.13110
F1336       F  0.01050388  0.09845651  0.70085399    -0.15470
F1337       F  0.01170681  0.20079592  0.68723279    -0.15480
F1338       F  0.46232283  0.14948012  0.68000370    -0.13110
C1339       C  0.42200454  0.02324102  0.63115860     0.24900
C1340       C  0.44309176  0.03579454  0.64655839    -0.23210
C1341       C  0.46894928  0.03509413  0.64447738     0.19810
C1342       C  0.47441214  0.02396045  0.62692084     0.24840
C1343       C  0.45379296  0.01207874  0.61131684    -0.23150
C1344       C  0.42718453  0.01116840  0.61380734     0.19740
F1345       F  0.40680660  0.99998128  0.59897698    -0.13110
F1346       F  0.39701693  0.02396334  0.63236774    -0.15470
F1347       F  0.00000195  0.02471233  0.62523251    -0.15480
F1348       F  0.98917008  0.04539652  0.65945388    -0.13110
C1349       C  0.28528931  0.42764401  0.69581279     0.24900
C1350       C  0.25733846  0.42323261  0.69898754    -0.23210
C1351       C  0.25394806  0.44719772  0.70282525     0.19810
C1352       C  0.27804286  0.47486363  0.70448792     0.24840
C1353       C  0.30616019  0.47909779  0.70271523    -0.23150
C1354       C  0.30950764  0.45528557  0.69781662     0.19740
F1355       F  0.33624394  0.45837197  0.69625359    -0.13110
F1356       F  0.28928872  0.40493469  0.69200697    -0.15470
F1357       F  0.27387980  0.49751002  0.70814050    -0.15480
F1358       F  0.22720766  0.44382171  0.70494203    -0.13110
C1359       C  0.35621303  0.10084345  0.77009848     0.24900
C1360       C  0.34457093  0.08380082  0.78765195    -0.23210
C1361       C  0.33929560  0.05532794  0.78761265     0.19810
C1362       C  0.34390532  0.04343760  0.77007427     0.24840
C1363       C  0.35418198  0.05992012  0.75216996    -0.23150
C1364       C  0.36094432  0.08897639  0.75246280     0.19740
F1365       F  0.37076302  0.10542245  0.73539770    -0.13110
F1366       F  0.36179203  0.12855436  0.76974844    -0.15470
F1367       F  0.33831325  0.01572052  0.77057659    -0.15480
F1368       F  0.33030551  0.03919896  0.80477399    -0.13110
C1369       C  0.35571790  0.54607400  0.73297155     0.04430
C1370       C  0.38127601  0.55757277  0.72149613    -0.11720
C1371       C  0.38244402  0.54488052  0.70281394     0.01930
C1372       C  0.35685102  0.52000811  0.69621190    -0.10240
C1373       C  0.33168823  0.50737981  0.70820467     0.04420
C1374       C  0.33130334  0.52081059  0.72637176    -0.09670
H1375       H  0.40013343  0.57592340  0.72782111     0.10020
H1376       H  0.35592076  0.51004647  0.68175547     0.07550
H1377       H  0.31195447  0.51129848  0.73567061     0.07390
C1378       C  0.43962059  0.55198965  0.66375305     0.04430
C1379       C  0.41384867  0.54062290  0.67509465    -0.11720
C1380       C  0.41017608  0.55699963  0.69062689     0.01930
C1381       C  0.43376057  0.58492640  0.69469827    -0.10240
C1382       C  0.46010170  0.59546581  0.68441874     0.04420
C1383       C  0.46259691  0.57936764  0.66870684    -0.09670
H1384       H  0.39725890  0.51874163  0.67184668     0.10020
H1385       H  0.43238009  0.59886693  0.70593432     0.07550
H1386       H  0.98261917  0.58851264  0.66016315     0.07390
C1387       C  0.26541490  0.87766505  0.83617351     0.04430
C1388       C  0.28151443  0.86796412  0.84684284    -0.11720
C1389       C  0.30207216  0.88552832  0.86156390     0.01930
C1390       C  0.30610199  0.91348035  0.86496607    -0.10240
C1391       C  0.28854025  0.92254350  0.85527805     0.04420
C1392       C  0.26766910  0.90396342  0.84133954    -0.09670
H1393       H  0.27744499  0.84653791  0.84336258     0.10020
H1394       H  0.32323795  0.92875380  0.87465579     0.07550
H1395       H  0.25400380  0.91055727  0.83361420     0.07390
C1396       C  0.34602179  0.87598457  0.90366240     0.04430
C1397       C  0.33229808  0.88746364  0.89194399    -0.11720
C1398       C  0.31854109  0.87439495  0.87344318     0.01930
C1399       C  0.31990417  0.84990334  0.86681970    -0.10240
C1400       C  0.33151805  0.83690295  0.87926583     0.04420
C1401       C  0.34393239  0.84987091  0.89787382    -0.09670
H1402       H  0.33279723  0.90668420  0.89746122     0.10020
H1403       H  0.31222903  0.84070875  0.85195627     0.07550
H1404       H  0.35254766  0.83991799  0.90789211     0.07390
C1405       C  0.44470194  0.71777956  0.49881873     0.04430
C1406       C  0.45834367  0.70596245  0.51052593    -0.11720
C1407       C  0.47860868  0.72235080  0.52592043     0.01930
C1408       C  0.48339282  0.75052537  0.52983142    -0.10240
C1409       C  0.46832888  0.76146315  0.51913090     0.04420
C1410       C  0.45012655  0.74563350  0.50327087    -0.09670
H1411       H  0.45264174  0.68395222  0.50746552     0.10020
H1412       H  0.49893643  0.76461557  0.54091667     0.07550
H1413       H  0.44038781  0.75545517  0.49421337     0.07390
C1414       C  0.02885128  0.71647033  0.56482229     0.04430
C1415       C  0.01069264  0.72473689  0.55532751    -0.11720
C1416       C  0.99533850  0.71086318  0.53738825     0.01930
C1417       C  0.99601005  0.68580305  0.53096784    -0.10240
C1418       C  0.01323407  0.67656312  0.54111149     0.04420
C1419       C  0.03172626  0.69405207  0.55655913    -0.09670
H1420       H  0.00811187  0.74136859  0.56261842     0.10020
H1421       H  0.98273659  0.67280883  0.51858083     0.07550
H1422       H  0.04681486  0.68867121  0.56351768     0.07390
C1423       C  0.26694947  0.72163965  0.99380252     0.04430
C1424       C  0.24141738  0.70964201  0.00539982    -0.11720
C1425       C  0.24019229  0.72243766  0.02402316     0.01930
C1426       C  0.26579771  0.74703216  0.03081642    -0.10240
C1427       C  0.29067090  0.76040760  0.01857940     0.04420
C1428       C  0.29046556  0.74803119  0.99980952    -0.09670
H1429       H  0.22305344  0.69013738  0.99983844     0.10020
H1430       H  0.26692079  0.75571782  0.04582058     0.07550
H1431       H  0.30916837  0.75855287  0.98992789     0.07390
C1432       C  0.18486744  0.71455225  0.06476595     0.04430
C1433       C  0.20936371  0.72663476  0.05204548    -0.11720
C1434       C  0.21295537  0.70999308  0.03668555     0.01930
C1435       C  0.19013043  0.68139851  0.03363618    -0.10240
C1436       C  0.16510943  0.66979307  0.04558943     0.04420
C1437       C  0.16306356  0.68601603  0.06141532    -0.09670
H1438       H  0.22518822  0.74915692  0.05414492     0.10020
H1439       H  0.19147111  0.66743831  0.02239173     0.07550
H1440       H  0.14413930  0.67621973  0.07113853     0.07390
C1441       C  0.02409905  0.87813461  0.40117678     0.04430
C1442       C  0.05030172  0.88817728  0.39082976    -0.11720
C1443       C  0.05189928  0.87537690  0.37243967     0.01930
C1444       C  0.02625304  0.85053699  0.36567622    -0.10240
C1445       C  0.50023751  0.83968966  0.37648245     0.04420
C1446       C  0.49912798  0.85419728  0.39374200    -0.09670
H1447       H  0.06926012  0.90553004  0.39784060     0.10020
H1448       H  0.02558732  0.83883553  0.35219914     0.07550
H1449       H  0.47887889  0.84612401  0.40187433     0.07390
C1450       C  0.10894184  0.88344480  0.33333826     0.04430
C1451       C  0.13344639  0.90796463  0.34062881    -0.11720
C1452       C  0.13124794  0.92425134  0.35634445     0.01930
C1453       C  0.10485145  0.91390383  0.36656876    -0.10240
C1454       C  0.08018706  0.88729813  0.36101826     0.04420
C1455       C  0.08270039  0.87298157  0.34373327    -0.09670
H1456       H  0.15405730  0.91569070  0.33306043     0.10020
H1457       H  0.10385458  0.92777759  0.37802193     0.07550
H1458       H  0.06436954  0.85423512  0.33747752     0.07390
C1459       C  0.10419373  0.55237367  0.16668639     0.04430
C1460       C  0.10163999  0.57495990  0.17529103    -0.11720
C1461       C  0.11818062  0.59017360  0.19207391     0.01930
C1462       C  0.13477354  0.58034697  0.20218075    -0.10240
C1463       C  0.13684900  0.55657117  0.19473534     0.04420
C1464       C  0.12227086  0.54374559  0.17624167    -0.09670
H1465       H  0.08783085  0.58192042  0.16824785     0.10020
H1466       H  0.14585758  0.59173747  0.21579445     0.07550
H1467       H  0.12528434  0.52754933  0.16872102     0.07390
C1468       C  0.18620022  0.54922514  0.23428017     0.04430
C1469       C  0.17296603  0.56112605  0.22225343    -0.11720
C1470       C  0.15369266  0.54513292  0.20623657     0.01930
C1471       C  0.15002208  0.51752973  0.20179165    -0.10240
C1472       C  0.16410853  0.50593081  0.21317678     0.04420
C1473       C  0.18094887  0.52144114  0.22986793    -0.09670
H1474       H  0.17831040  0.58299733  0.22552220     0.10020
H1475       H  0.13621067  0.50459614  0.18956424     0.07550
H1476       H  0.19012170  0.51172080  0.23959859     0.07390
C1477       C  0.06170380  0.84182419  0.83132043     0.04430
C1478       C  0.07232533  0.86736851  0.84278416    -0.11720
C1479       C  0.05548079  0.87028693  0.85838754     0.01930
C1480       C  0.02790699  0.84602385  0.86249262    -0.10240
C1481       C  0.01781924  0.81992757  0.85178908     0.04420
C1482       C  0.03446301  0.81845320  0.83594796    -0.09670
H1483       H  0.09404138  0.88440475  0.83954835     0.10020
H1484       H  0.01398664  0.84691325  0.87401412     0.07550
H1485       H  0.02595573  0.79884808  0.82700447     0.07390
C1486       C  0.06447216  0.92551116  0.90001427     0.04430
C1487       C  0.05438332  0.89931275  0.88925390    -0.11720
C1488       C  0.06662172  0.89824367  0.87026851     0.01930
C1489       C  0.09025829  0.92426517  0.86293142    -0.10240
C1490       C  0.10188215  0.94998842  0.87415989     0.04420
C1491       C  0.08804125  0.95066201  0.89205011    -0.09670
H1492       H  0.03758570  0.87982829  0.89620509     0.10020
H1493       H  0.10026645  0.92510334  0.84850149     0.07550
H1494       H  0.09639485  0.97087051  0.90017786     0.07390
C1495       C  0.40007629  0.83996165  0.66514050     0.04430
C1496       C  0.41001975  0.82395750  0.67580403    -0.11720
C1497       C  0.39303519  0.80403638  0.69116310     0.01930
C1498       C  0.36537870  0.80066424  0.69511066    -0.10240
C1499       C  0.35579020  0.81753690  0.68502082     0.04420
C1500       C  0.37358621  0.83745067  0.67028148    -0.09670
H1501       H  0.43110681  0.82759879  0.67172251     0.10020
H1502       H  0.35045109  0.78433213  0.70545712     0.07550
H1503       H  0.36634462  0.85033810  0.66217528     0.07390
C1504       C  0.39918984  0.75503311  0.73139262     0.04430
C1505       C  0.38977671  0.77161598  0.72078106    -0.11720
C1506       C  0.40369082  0.78658486  0.70265895     0.01930
C1507       C  0.42872112  0.78573592  0.69640453    -0.10240
C1508       C  0.43909266  0.77055478  0.70770554     0.04420
C1509       C  0.42312325  0.75381809  0.72422001    -0.09670
H1510       H  0.37232191  0.77347077  0.72741613     0.10020
H1511       H  0.44119607  0.79745665  0.68330572     0.07550
H1512       H  0.43060775  0.74114959  0.73235951     0.07390
C1513       C  0.23058520  0.67310129  0.50059129     0.04430
C1514       C  0.20591226  0.64845056  0.50744807    -0.11720
C1515       C  0.19332165  0.64838596  0.52607401     0.01930
C1516       C  0.20611838  0.67344981  0.53812791    -0.10240
C1517       C  0.23044419  0.69932386  0.53113459     0.04420
C1518       C  0.24241447  0.69851075  0.51210261    -0.09670
H1519       H  0.19624115  0.62927280  0.49799886     0.10020
H1520       H  0.19667680  0.67222460  0.55286279     0.07550
H1521       H  0.26046326  0.71749226  0.50558448     0.07390
C1522       C  0.23778173  0.75581906  0.57033046     0.04430
C1523       C  0.26482041  0.77919429  0.56532013    -0.11720
C1524       C  0.28107498  0.77698319  0.54951522     0.01930
C1525       C  0.27033054  0.75091798  0.53882021    -0.10240
C1526       C  0.24264519  0.72702068  0.54319325     0.04420
C1527       C  0.22655370  0.73019378  0.55907861    -0.09670
H1528       H  0.27339698  0.79912280  0.57390083     0.10020
H1529       H  0.28427065  0.74965662  0.52749480     0.07550
H1530       H  0.20495670  0.71328194  0.56277681     0.07390
C1531       C  0.22368660  0.50762790  0.99916005     0.04430
C1532       C  0.23414391  0.49143456  0.00918763    -0.11720
C1533       C  0.21897117  0.97297434  0.02574428     0.01930
C1534       C  0.19215616  0.97044147  0.03117510    -0.10240
C1535       C  0.18246393  0.48768129  0.02200142     0.04420
C1536       C  0.19871266  0.50680226  0.00654282    -0.09670
H1537       H  0.25381183  0.49314569  0.00351556     0.10020
H1538       H  0.17813641  0.95503051  0.04236263     0.07550
H1539       H  0.19090297  0.51992222  0.99947918     0.07390
C1540       C  0.23013840  0.92892002  0.06736336     0.04430
C1541       C  0.21876235  0.94326502  0.05620711    -0.11720
C1542       C  0.23088289  0.95669508  0.03731319     0.01930
C1543       C  0.25525707  0.95534134  0.03023024    -0.10240
C1544       C  0.26786349  0.94255275  0.04195276     0.04420
C1545       C  0.25488945  0.92914728  0.06033528    -0.09670
H1546       H  0.20092856  0.94426239  0.06298908     0.10020
H1547       H  0.26497507  0.96408584  0.01567794     0.07550
H1548       H  0.26430654  0.91905879  0.06943681     0.07390
C1549       C  0.06617611  0.59180504  0.39922118     0.04430
C1550       C  0.05533892  0.60655925  0.38786385    -0.11720
C1551       C  0.06740504  0.61904814  0.36874451     0.01930
C1552       C  0.09087245  0.61622290  0.36150796    -0.10240
C1553       C  0.10297721  0.60304034  0.37339960     0.04420
C1554       C  0.09001092  0.59043794  0.39194306    -0.09670
H1555       H  0.03815261  0.60890290  0.39452610     0.10020
H1556       H  0.10027977  0.62442608  0.34674910     0.07550
H1557       H  0.09905461  0.58011984  0.40117771     0.07390
C1558       C  0.06415396  0.67295196  0.33164099     0.04430
C1559       C  0.07385879  0.65642549  0.34195715    -0.11720
C1560       C  0.05657256  0.63610826  0.35704880     0.01930
C1561       C  0.02887320  0.63257324  0.36096476    -0.10240
C1562       C  0.01957767  0.64992616  0.35120165     0.04420
C1563       C  0.03776568  0.67046730  0.33697203    -0.09670
H1564       H  0.09507713  0.66008571  0.33813244     0.10020
H1565       H  0.01395752  0.61590576  0.37115641     0.07550
H1566       H  0.03085134  0.68393739  0.32930871     0.07390
C1567       C  0.39828089  0.59162611  0.23486690     0.04430
C1568       C  0.38711544  0.56581439  0.22394752    -0.11720
C1569       C  0.39869221  0.56485821  0.20477861     0.01930
C1570       C  0.42218376  0.59095608  0.19725081    -0.10240
C1571       C  0.43496189  0.61638938  0.20899281     0.04420
C1572       C  0.42255400  0.61641255  0.22773574    -0.09670
H1573       H  0.36945159  0.54685085  0.23079716     0.10020
H1574       H  0.43091284  0.59206493  0.18228025     0.07550
H1575       H  0.43193546  0.63565814  0.23709861     0.07390
C1576       C  0.39143943  0.00754328  0.16611705     0.04430
C1577       C  0.40239663  0.53374169  0.17674848    -0.11720
C1578       C  0.38682006  0.53683273  0.19310270     0.01930
C1579       C  0.35970650  0.01258169  0.19818875    -0.10240
C1580       C  0.34983025  0.98591611  0.18852750     0.04420
C1581       C  0.36595375  0.98348424  0.17283231    -0.09670
H1582       H  0.42281603  0.55147821  0.17177539     0.10020
H1583       H  0.34574864  0.01385423  0.20949053     0.07550
H1584       H  0.35781494  0.96292793  0.16513110     0.07390
C1585       C  0.27600085  0.84226959  0.32991558     0.04430
C1586       C  0.28874353  0.86721579  0.34223511    -0.11720
C1587       C  0.30681003  0.86994508  0.35904396     0.01930
C1588       C  0.30898999  0.84535120  0.36414860    -0.10240
C1589       C  0.29606142  0.82020913  0.35222355     0.04420
C1590       C  0.28127861  0.81977625  0.33454971    -0.09670
H1591       H  0.28365183  0.88383230  0.33871859     0.10020
H1592       H  0.32034524  0.84497584  0.37750612     0.07550
H1593       H  0.27316493  0.80131105  0.32448730     0.07390
C1594       C  0.35497439  0.92598222  0.39974588     0.04430
C1595       C  0.33879832  0.89977448  0.38917959    -0.11720
C1596       C  0.32324162  0.89794634  0.37108803     0.01930
C1597       C  0.32417057  0.92361935  0.36442072    -0.10240
C1598       C  0.33915995  0.94957088  0.37536748     0.04420
C1599       C  0.35503246  0.95063944  0.39256873    -0.09670
H1600       H  0.33833653  0.88113207  0.39575335     0.10020
H1601       H  0.31355556  0.92420088  0.35064788     0.07550
H1602       H  0.36697122  0.97077713  0.40079752     0.07390
C1603       C  0.18260363  0.58523493  0.73520603     0.04430
C1604       C  0.17101673  0.56117031  0.72238357    -0.11720
C1605       C  0.15434435  0.55951503  0.70519720     0.01930
C1606       C  0.15145901  0.58389438  0.70061852    -0.10240
C1607       C  0.16466617  0.60884122  0.71281881     0.04420
C1608       C  0.17925052  0.60875616  0.73040025    -0.09670
H1609       H  0.17530152  0.54400984  0.72611471     0.10020
H1610       H  0.13926380  0.58403337  0.68760600     0.07550
H1611       H  0.18851108  0.62739990  0.74036904     0.07390
C1612       C  0.11844594  0.00833733  0.66011152     0.04430
C1613       C  0.13123007  0.53329453  0.67215360    -0.11720
C1614       C  0.14066404  0.53276919  0.69213520     0.01930
C1615       C  0.13676098  0.00616807  0.69953222    -0.10240
C1616       C  0.12634726  0.98178107  0.68691038     0.04420
C1617       C  0.11725701  0.98318194  0.66720740    -0.09670
H1618       H  0.13343256  0.55277739  0.66556938     0.10020
H1619       H  0.14148045  0.00387452  0.71515746     0.07550
H1620       H  0.10864184  0.96442976  0.65739508     0.07390
C1621       C  0.27662394  0.50549105  0.49936192     0.04430
C1622       C  0.25126543  0.99210717  0.51114927    -0.11720
C1623       C  0.24730712  0.97205075  0.52672716     0.01930
C1624       C  0.27047753  0.96701781  0.53066637    -0.10240
C1625       C  0.29637110  0.98149080  0.51964630     0.04420
C1626       C  0.29910083  0.50012968  0.50383658    -0.09670
H1627       H  0.23508973  0.99800176  0.50799833     0.10020
H1628       H  0.26874611  0.95154409  0.54194273     0.07550
H1629       H  0.31879209  0.51031854  0.49488792     0.07390
C1630       C  0.19078010  0.92589579  0.56741814     0.04430
C1631       C  0.21727031  0.94180585  0.55703169    -0.11720
C1632       C  0.21918455  0.95617080  0.53842460     0.01930
C1633       C  0.19382150  0.95542114  0.53128117    -0.10240
C1634       C  0.16784824  0.94095147  0.54212357     0.04420
C1635       C  0.16612068  0.92527095  0.55952226    -0.09670
H1636       H  0.23630359  0.94345954  0.56402102     0.10020
H1637       H  0.19359651  0.96604160  0.51738679     0.07550
H1638       H  0.14555813  0.91338822  0.56731955     0.07390
C1639       C  0.35284532  0.76225988  0.23647111     0.04430
C1640       C  0.37799781  0.77559471  0.22456677    -0.11720
C1641       C  0.37882943  0.78920782  0.20586257     0.01930
C1642       C  0.35306678  0.78836836  0.19953361    -0.10240
C1643       C  0.32837849  0.77652345  0.21191360     0.04420
C1644       C  0.32848581  0.76346739  0.23031867    -0.09670
H1645       H  0.39677867  0.77566875  0.23060717     0.10020
H1646       H  0.35141443  0.79679232  0.18504462     0.07550
H1647       H  0.30950279  0.75416516  0.23998240     0.07390
C1648       C  0.43519691  0.84061463  0.16705692     0.04430
C1649       C  0.40884281  0.82345609  0.17711281    -0.11720
C1650       C  0.40660345  0.80554591  0.19380092     0.01930
C1651       C  0.43150059  0.80377563  0.19884379    -0.10240
C1652       C  0.45808300  0.82142584  0.18919660     0.04420
C1653       C  0.45996025  0.84108929  0.17443287    -0.09670
H1654       H  0.39039337  0.82412444  0.17134806     0.10020
H1655       H  0.43058071  0.78820058  0.20967796     0.07550
H1656       H  0.48077427  0.85558146  0.16762189     0.07390
C1657       C  0.43947091  0.67391783  0.99901284     0.04430
C1658       C  0.45759014  0.70101618  0.00793692    -0.11720
C1659       C  0.47227934  0.70353837  0.02643030     0.01930
C1660       C  0.47065073  0.67820455  0.03451281    -0.10240
C1661       C  0.45424509  0.65141287  0.02494710     0.04420
C1662       C  0.43727620  0.64920539  0.00818339    -0.09670
H1663       H  0.46056387  0.72000960  0.00004620     0.10020
H1664       H  0.48182004  0.67855137  0.04826059     0.07550
H1665       H  0.42336698  0.62809266  0.00166958     0.07390
C1666       C  0.02042378  0.76138683  0.06511893     0.04430
C1667       C  0.00838686  0.73637284  0.05315466    -0.11720
C1668       C  0.48867099  0.73214256  0.03730432     0.01930
C1669       C  0.48329765  0.75501869  0.03299227    -0.10240
C1670       C  0.99677434  0.78073837  0.04422452     0.04420
C1671       C  0.01488625  0.78356837  0.06041173    -0.09670
H1672       H  0.01406623  0.72021828  0.05694660     0.10020
H1673       H  0.46779798  0.75289878  0.02160118     0.07550
H1674       H  0.02441836  0.80300922  0.06960767     0.07390
C1675       C  0.12797750  0.65637987  0.85513515     0.04430
C1676       C  0.10113742  0.63826155  0.86442226    -0.11720
C1677       C  0.07704697  0.64216392  0.86114630     0.01930
C1678       C  0.08049602  0.66366370  0.84696967    -0.10240
C1679       C  0.10686105  0.68078750  0.83695571     0.04420
C1680       C  0.13073514  0.67820202  0.84205199    -0.09670
H1681       H  0.09920631  0.62051756  0.87343276     0.10020
H1682       H  0.06305963  0.66739193  0.84308211     0.07550
H1683       H  0.15122694  0.69206542  0.83461312     0.07390
C1684       C  0.52013240  0.58727512  0.89796360     0.04430
C1685       C  0.49506421  0.58616070  0.89077790    -0.11720
C1686       C  0.49628833  0.60497724  0.87553474     0.01930
C1687       C  0.52264767  0.62247140  0.86550331    -0.10240
C1688       C  0.04844554  0.62312194  0.87168686     0.04420
C1689       C  0.04671501  0.60600814  0.88870399    -0.09670
H1690       H  0.47464882  0.57201604  0.89822993     0.10020
H1691       H  0.52258506  0.63603031  0.85343409     0.07550
H1692       H  0.06578540  0.60720403  0.89527173     0.07390
O1693       O  0.31179106  0.57958080  0.81356253    -0.85190
O1694       O  0.39053101  0.71428560  0.87839073    -0.85350
O1695       O  0.36451313  0.67984808  0.81304686    -0.87020
O1696       O  0.39452118  0.63382790  0.85156374    -0.85780
O1697       O  0.37611134  0.60610128  0.88030056    -0.85370
O1698       O  0.32489843  0.68585747  0.81184973    -0.86740
O1699       O  0.40267279  0.69568657  0.85106965    -0.85220
O1700       O  0.35699198  0.61995553  0.81275432    -0.84800
Zr1701     Zr  0.36041424  0.64955422  0.84201800     2.84310
O1702       O  0.35987060  0.64952895  0.87770664    -1.06780
O1703       O  0.31338865  0.63123264  0.82961447    -1.07510
C1704       C  0.33732799  0.59525335  0.80582956     1.07920
C1705       C  0.40809210  0.71560347  0.86432723     1.07860
C1706       C  0.34937307  0.69005415  0.80504900     1.10850
C1707       C  0.39559270  0.61838670  0.86629839     1.08630
H1708       H  0.35368055  0.69811529  0.84824822     0.34180
O1709       O  0.34189977  0.67863655  0.85323879    -1.27730
H1710       H  0.33889661  0.59029468  0.84927456     0.33860
O1711       O  0.33127421  0.60226559  0.85396174    -1.29410
O1712       O  0.31398563  0.68306885  0.91699998    -0.85180
O1713       O  0.23406834  0.54992121  0.85090999    -0.86680
O1714       O  0.30864615  0.70945721  0.85105742    -0.85260
O1715       O  0.36020824  0.62902387  0.91828385    -0.85310
O1716       O  0.31483382  0.55212089  0.88056027    -0.85020
O1717       O  0.26345867  0.63218443  0.81273814    -0.84820
O1718       O  0.23053427  0.62886852  0.87818672    -0.85200
O1719       O  0.25968715  0.58300264  0.91709355    -0.84660
O1720       O  0.24890549  0.65676370  0.84960220    -0.85720
O1721       O  0.29884991  0.57626930  0.91842158    -0.84880
O1722       O  0.33674854  0.72017876  0.87970060    -0.85280
O1723       O  0.25886137  0.58707163  0.81234288    -0.85000
O1724       O  0.28687473  0.54207220  0.85200384    -0.84650
O1725       O  0.36775647  0.67514635  0.91815703    -0.85060
O1726       O  0.26740451  0.64497276  0.91617734    -0.85350
O1727       O  0.22201149  0.56854280  0.87823789    -0.86690
Zr1728     Zr  0.34136156  0.67864334  0.88887563     2.83100
Zr1729     Zr  0.28431161  0.58416465  0.84179065     2.83500
Zr1730     Zr  0.29476653  0.66016144  0.84095464     2.84090
Zr1731     Zr  0.32998680  0.60221529  0.88953959     2.83360
Zr1732     Zr  0.26475911  0.61363029  0.88826864     2.84220
O1733       O  0.28287411  0.58401283  0.87733532    -1.07260
O1734       O  0.29434588  0.66073663  0.87650683    -1.06770
C1735       C  0.28778076  0.66875710  0.92380164     1.07890
C1736       C  0.21611626  0.54914442  0.86445476     1.10510
C1737       C  0.32386119  0.72646736  0.86568463     1.08070
C1738       C  0.37127844  0.65476991  0.92570422     1.08430
C1739       C  0.29942484  0.53528269  0.86591488     1.08010
C1740       C  0.25376487  0.60656273  0.80534269     1.07560
C1741       C  0.22931097  0.64417219  0.86342590     1.07990
C1742       C  0.27442737  0.57242917  0.92516123     1.07500
H1743       H  0.24606888  0.60536882  0.84762748     0.34180
O1744       O  0.26547460  0.61303934  0.85275780    -1.28360
H1745       H  0.31136949  0.63167015  0.91550661     0.34200
O1746       O  0.31171623  0.63152344  0.90081876    -1.29750
O1747       O  0.42781225  0.91613123  0.98096486    -0.85190
O1748       O  0.48193277  0.54906036  0.04754206    -0.85350
O1749       O  0.39846418  0.97075259  0.01814484    -0.87020
O1750       O  0.47500439  0.51463887  0.98004062    -0.85780
O1751       O  0.02108261  0.52154687  0.98089492    -0.85370
O1752       O  0.38618825  0.94074873  0.04588461    -0.86740
O1753       O  0.45220090  0.53160890  0.01960047    -0.85220
O1754       O  0.42017006  0.95476627  0.98132674    -0.84800
Zr1755     Zr  0.44837220  0.98569645  0.00949922     2.84310
O1756       O  0.49579065  0.51417416  0.02142474    -1.06780
O1757       O  0.42938553  0.93811691  0.02101187    -1.07510
C1758       C  0.41670600  0.93091745  0.97384590     1.07920
C1759       C  0.46576910  0.55066771  0.03362050     1.07860
C1760       C  0.38045295  0.95411260  0.03182535     1.10850
C1761       C  0.50084927  0.52482106  0.97290188     1.08630
H1762       H  0.43603363  0.99315885  0.04996912     0.34180
O1763       O  0.44772775  0.98530386  0.04510159    -1.27730
H1764       H  0.47706430  0.96661256  0.98289232     0.33860
O1765       O  0.47688367  0.96669723  0.99758293    -1.29410
O1766       O  0.02462871  0.51648268  0.08617837    -0.85180
O1767       O  0.47226485  0.88417197  0.01870619    -0.86680
O1768       O  0.42469314  0.96453101  0.08515720    -0.85260
O1769       O  0.05933096  0.54389875  0.01939398    -0.85310
O1770       O  0.02908691  0.96785250  0.98162939    -0.85020
O1771       O  0.39423954  0.88796036  0.04704889    -0.84820
O1772       O  0.47724664  0.91789049  0.08619684    -0.85200
O1773       O  0.05331895  0.96028099  0.04734228    -0.84660
O1774       O  0.43145846  0.91142507  0.08618716    -0.85720
O1775       O  0.06565642  0.99047889  0.01961271    -0.84880
O1776       O  0.46530624  0.50951607  0.08624740    -0.85280
O1777       O  0.41234541  0.87721829  0.01882339    -0.85000
O1778       O  0.48922823  0.92249792  0.98079559    -0.84650
O1779       O  0.04277655  0.55406979  0.04875025    -0.85060
O1780       O  0.03121721  0.97732594  0.08652944    -0.85350
O1781       O  0.99796297  0.89986037  0.04855135    -0.86690
Zr1782     Zr  0.49520301  0.51327486  0.05705757     2.83100
Zr1783     Zr  0.45822570  0.91943926  0.00942414     2.83500
Zr1784     Zr  0.42850418  0.93769796  0.05659747     2.84090
Zr1785     Zr  0.02400319  0.99472681  0.00985651     2.83360
Zr1786     Zr  0.00434854  0.94714960  0.05731867     2.84220
O1787       O  0.00531665  0.94742761  0.02168355    -1.07260
O1788       O  0.47571401  0.96590677  0.06886436    -1.06770
C1789       C  0.03533403  0.50160580  0.09379383     1.07890
C1790       C  0.48583703  0.88139143  0.03397536     1.10510
C1791       C  0.44052223  0.98979312  0.09308084     1.08070
C1792       C  0.06178065  0.56023873  0.03457392     1.08430
C1793       C  0.01408282  0.94226015  0.97395161     1.08010
C1794       C  0.39305815  0.87072309  0.03283116     1.07560
C1795       C  0.45157855  0.90741154  0.09364718     1.07990
C1796       C  0.07094401  0.97645518  0.03332812     1.07500
H1797       H  0.44914187  0.89936122  0.04999085     0.34180
O1798       O  0.45719211  0.91890532  0.04506323    -1.28360
H1799       H  0.04323381  0.50583638  0.05054718     0.34200
O1800       O  0.02374797  0.99445177  0.04547490    -1.29750
O1801       O  0.36383187  0.68388895  0.41947895    -0.85190
O1802       O  0.31067965  0.55158279  0.35236365    -0.85350
O1803       O  0.31889848  0.58601045  0.42000646    -0.87020
O1804       O  0.39289919  0.62859263  0.37933240    -0.85780
O1805       O  0.40230997  0.65630331  0.35062548    -0.85370
O1806       O  0.27248423  0.57808849  0.42029421    -0.86740
O1807       O  0.34081310  0.56954611  0.38004931    -0.85220
O1808       O  0.37154902  0.64537891  0.41883337    -0.84800
Zr1809     Zr  0.34397535  0.61495578  0.39023949     2.84310
O1810       O  0.34306026  0.61498253  0.35470700    -1.06780
O1811       O  0.31491139  0.63295488  0.40244798    -1.07510
C1812       C  0.37487258  0.66901673  0.42664270     1.07920
C1813       C  0.32733455  0.55038517  0.36610058     1.07860
C1814       C  0.29334817  0.57527867  0.42777901     1.10850
C1815       C  0.40899709  0.64307053  0.36412123     1.08630
H1816       H  0.28875988  0.56608084  0.38382161     0.34180
O1817       O  0.29624624  0.58559551  0.37896470    -1.27730
H1818       H  0.38194036  0.67416740  0.38329354     0.33860
O1819       O  0.36227680  0.66237420  0.37863537    -1.29410
O1820       O  0.26593264  0.58326336  0.31408615    -0.85180
O1821       O  0.31850316  0.71544263  0.38156548    -0.86680
O1822       O  0.23274006  0.55390455  0.38197733    -0.85260
O1823       O  0.36482850  0.63577159  0.31411307    -0.85310
O1824       O  0.39638298  0.71120583  0.35258354    -0.85020
O1825       O  0.26264718  0.63024011  0.41957790    -0.84820
O1826       O  0.23484890  0.63451899  0.35302355    -0.85200
O1827       O  0.31145659  0.68414228  0.31621856    -0.84660
O1828       O  0.22364271  0.60474589  0.38080457    -0.85720
O1829       O  0.35674706  0.68924099  0.31468900    -0.84880
O1830       O  0.24938402  0.54476801  0.35230555    -0.85280
O1831       O  0.30307917  0.67549472  0.42040613    -0.85000
O1832       O  0.37873738  0.72298294  0.38065893    -0.84650
O1833       O  0.32613626  0.58944812  0.31484497    -0.85060
O1834       O  0.25857060  0.62202913  0.31471189    -0.85350
O1835       O  0.28846330  0.69716072  0.35392149    -0.86690
Zr1836     Zr  0.29562135  0.58626697  0.34330737     2.83100
Zr1837     Zr  0.33314765  0.68038806  0.39091048     2.83500
Zr1838     Zr  0.26725295  0.60374802  0.39115774     2.84090
Zr1839     Zr  0.36099587  0.66210946  0.34301080     2.83360
Zr1840     Zr  0.28492964  0.65154250  0.34405719     2.84220
O1841       O  0.33243611  0.68053365  0.35536670    -1.07260
O1842       O  0.26663425  0.60414876  0.35559180    -1.06770
C1843       C  0.25531759  0.59846684  0.30678602     1.07890
C1844       C  0.30220090  0.71674721  0.36755934     1.10510
C1845       C  0.23062936  0.53774802  0.36672558     1.08070
C1846       C  0.34991027  0.60976930  0.30722694     1.08430
C1847       C  0.39791271  0.72872737  0.36664532     1.08010
C1848       C  0.27841350  0.65558725  0.42734865     1.07560
C1849       C  0.21718908  0.61747069  0.36668456     1.07990
C1850       C  0.33686186  0.69435129  0.30834284     1.07500
H1851       H  0.27337612  0.65883873  0.38469229     0.34180
O1852       O  0.28531556  0.65134736  0.37967033    -1.28360
H1853       H  0.31356791  0.63367835  0.31668284     0.34200
O1854       O  0.31364982  0.63344616  0.33137386    -1.29750
O1855       O  0.23072601  0.87598351  0.68532285    -0.85190
O1856       O  0.09887188  0.79599485  0.75336972    -0.85350
O1857       O  0.15108529  0.87885999  0.71431569    -0.87020
O1858       O  0.19475575  0.84711462  0.75366260    -0.85780
O1859       O  0.20380024  0.80935694  0.75289321    -0.85370
O1860       O  0.12210994  0.86080950  0.68617573    -0.86740
O1861       O  0.13737338  0.84233129  0.75247754    -0.85220
O1862       O  0.21282171  0.88776880  0.71320481    -0.84800
Zr1863     Zr  0.16747502  0.84528462  0.72351212     2.84310
O1864       O  0.14931807  0.79814305  0.73520132    -1.06780
O1865       O  0.16730997  0.84513061  0.68793723    -1.07510
C1866       C  0.23192516  0.89374570  0.69911447     1.07920
C1867       C  0.11385187  0.82194897  0.76047083     1.07860
C1868       C  0.13468324  0.87988032  0.70029364     1.10850
C1869       C  0.20539239  0.83204318  0.76105525     1.08630
H1870       H  0.10805566  0.82410473  0.71692485     0.34180
O1871       O  0.11997112  0.81653959  0.71199848    -1.27730
H1872       H  0.21634054  0.83880898  0.71677488     0.33860
O1873       O  0.19676829  0.82694233  0.71195339    -1.29410
O1874       O  0.06561038  0.72078733  0.71378529    -0.85180
O1875       O  0.19896951  0.79959542  0.64730186    -0.86680
O1876       O  0.06957378  0.79920371  0.68484143    -0.85260
O1877       O  0.15241353  0.75251405  0.75432455    -0.85310
O1878       O  0.22743000  0.79312326  0.71323583    -0.85020
O1879       O  0.14710690  0.84788026  0.64830080    -0.84820
O1880       O  0.09999579  0.74643252  0.64799693    -0.85200
O1881       O  0.14372065  0.71478899  0.68707854    -0.84660
O1882       O  0.09443834  0.78630239  0.64717731    -0.85720
O1883       O  0.17318487  0.73272639  0.71506966    -0.84880
O1884       O  0.05999533  0.77353148  0.71464086    -0.85280
O1885       O  0.19253491  0.85344926  0.64752374    -0.85000
O1886       O  0.23700535  0.82045921  0.68428335    -0.84650
O1887       O  0.10582714  0.74419483  0.75336199    -0.85060
O1888       O  0.08318577  0.70884100  0.68575864    -0.85350
O1889       O  0.16107284  0.75287857  0.64867404    -0.86690
Zr1890     Zr  0.10184889  0.76948544  0.72401098     2.83100
Zr1891     Zr  0.19582172  0.82626560  0.67626742     2.83500
Zr1892     Zr  0.11995973  0.81592605  0.67638820     2.84090
Zr1893     Zr  0.17809160  0.77942021  0.72381892     2.83360
Zr1894     Zr  0.13011900  0.75011947  0.67693964     2.84220
O1895       O  0.17763468  0.77909187  0.68828175    -1.07260
O1896       O  0.10142993  0.76879546  0.68849134    -1.06770
C1897       C  0.06366969  0.70356709  0.69933974     1.07890
C1898       C  0.18444245  0.77340531  0.64064702     1.10510
C1899       C  0.05303701  0.78481844  0.69987572     1.08070
C1900       C  0.12662652  0.74220378  0.76165370     1.08430
C1901       C  0.24365556  0.80745668  0.69798261     1.08010
C1902       C  0.17272189  0.85835083  0.64066937     1.07560
C1903       C  0.09017182  0.76197478  0.64012024     1.07990
C1904       C  0.15946692  0.71321665  0.70135440     1.07500
H1905       H  0.14858280  0.79719514  0.64985704     0.34180
O1906       O  0.14854979  0.79723314  0.66454817    -1.28360
H1907       H  0.12233280  0.73078736  0.71775911     0.34200
O1908       O  0.13027205  0.75021587  0.71260188    -1.29750
O1909       O  0.14119297  0.74924889  0.14526897    -0.85190
O1910       O  0.22215292  0.88173917  0.21218300    -0.85350
O1911       O  0.19562337  0.84984111  0.14663668    -0.87020
O1912       O  0.22643009  0.80356116  0.18453856    -0.85780
O1913       O  0.20817678  0.77427398  0.21258908    -0.85370
O1914       O  0.15564022  0.85536533  0.14641570    -0.86740
O1915       O  0.23382204  0.86400053  0.18410895    -0.85220
O1916       O  0.18711059  0.78849075  0.14502831    -0.84800
Zr1917     Zr  0.19146898  0.81808928  0.17466196     2.84310
O1918       O  0.19180608  0.81781109  0.21025319    -1.06780
O1919       O  0.14399181  0.79974338  0.16316954    -1.07510
C1920       C  0.16663780  0.76469145  0.13742164     1.07920
C1921       C  0.23945910  0.88329214  0.19792942     1.07860
C1922       C  0.18021345  0.86018560  0.13933180     1.10850
C1923       C  0.22762183  0.78751934  0.19879748     1.08630
H1924       H  0.18471914  0.86658137  0.18188435     0.34180
O1925       O  0.17306708  0.84697226  0.18666849    -1.27730
H1926       H  0.17011188  0.75858328  0.18118560     0.33860
O1927       O  0.16254596  0.77046231  0.18618985    -1.29410
O1928       O  0.14652001  0.85034281  0.25056706    -0.85180
O1929       O  0.06478165  0.71856968  0.18353627    -0.86680
O1930       O  0.13889048  0.87729802  0.18594035    -0.85260
O1931       O  0.19306800  0.79681981  0.25082671    -0.85310
O1932       O  0.14672200  0.72070319  0.21234985    -0.85020
O1933       O  0.09535567  0.80267951  0.14620172    -0.84820
O1934       O  0.06218336  0.79638279  0.21383071    -0.85200
O1935       O  0.09393484  0.75092129  0.25178014    -0.84660
O1936       O  0.07975036  0.82425856  0.18510461    -0.85720
O1937       O  0.13269663  0.74342804  0.25064153    -0.84880
O1938       O  0.16866163  0.88835677  0.21370036    -0.85280
O1939       O  0.09014424  0.75733180  0.14514709    -0.85000
O1940       O  0.11663674  0.70896819  0.18465543    -0.84650
O1941       O  0.20067360  0.84300944  0.25083188    -0.85060
O1942       O  0.10056826  0.81117333  0.25108130    -0.85350
O1943       O  0.05393932  0.73556083  0.21233411    -0.86690
Zr1944     Zr  0.17318551  0.84637757  0.22219979     2.83100
Zr1945     Zr  0.11502575  0.75228381  0.17468881     2.83500
Zr1946     Zr  0.12554816  0.82840974  0.17529745     2.84090
Zr1947     Zr  0.16244753  0.77047581  0.22183252     2.83360
Zr1948     Zr  0.09667279  0.78063380  0.22247761     2.84220
O1949       O  0.11489727  0.75172724  0.21033674    -1.07260
O1950       O  0.12569095  0.82807633  0.21082182    -1.06770
C1951       C  0.12089569  0.83541683  0.25811029     1.07890
C1952       C  0.04739832  0.71703719  0.19778607     1.10510
C1953       C  0.15482008  0.89441186  0.20026897     1.08070
C1954       C  0.20413376  0.82257172  0.25833085     1.08430
C1955       C  0.12993615  0.70300706  0.19860278     1.08010
C1956       C  0.08589133  0.77749625  0.13818053     1.07560
C1957       C  0.06055832  0.81164531  0.19917679     1.07990
C1958       C  0.10928136  0.74023282  0.25871930     1.07500
H1959       H  0.07703947  0.77348658  0.18183199     0.34180
O1960       O  0.09650063  0.78095742  0.18680144    -1.28360
H1961       H  0.14439447  0.79917005  0.24878631     0.34200
O1962       O  0.14416430  0.79915101  0.23409638    -1.29750
O1963       O  0.98643542  0.51581403  0.58541982    -0.85190
O1964       O  0.40611856  0.88248294  0.51904808    -0.85350
O1965       O  0.40117710  0.95951965  0.54678754    -0.87020
O1966       O  0.43511452  0.91785421  0.58596387    -0.85780
O1967       O  0.47332214  0.90949837  0.58445555    -0.85370
O1968       O  0.41801420  0.48791264  0.51811449    -0.86740
O1969       O  0.39702354  0.89890082  0.54889426    -0.85220
O1970       O  0.44011393  0.97732063  0.58488165    -0.84800
Zr1971     Zr  0.43735372  0.94662399  0.55649305     2.84310
O1972       O  0.45555794  0.91786601  0.54394008    -1.06780
O1973       O  0.46535782  0.49410341  0.54474449    -1.07510
C1974       C  0.46045864  0.50105086  0.59259315     1.07920
C1975       C  0.39040757  0.87986633  0.53475508     1.07860
C1976       C  0.39887287  0.97424883  0.53206407     1.10850
C1977       C  0.45015861  0.90680731  0.59273168     1.08630
H1978       H  0.41677781  0.93852916  0.51601057     0.34180
O1979       O  0.43640553  0.94662461  0.52079599    -1.27730
H1980       H  0.48524475  0.96485439  0.58283315     0.33860
O1981       O  0.48472150  0.96474231  0.56814497    -1.29410
O1982       O  0.48220903  0.91485469  0.48005337    -0.85180
O1983       O  0.06245551  0.54664399  0.54750689    -0.86680
O1984       O  0.43497693  0.96830415  0.47996990    -0.85260
O1985       O  0.48888276  0.88722141  0.54470967    -0.85310
O1986       O  0.03700277  0.96350741  0.58223797    -0.85020
O1987       O  0.98073254  0.54412913  0.51814712    -0.84820
O1988       O  0.03542847  0.51621205  0.48027718    -0.85200
O1989       O  0.06679222  0.97021595  0.51774131    -0.84660
O1990       O  0.99476158  0.52052068  0.47985783    -0.85720
O1991       O  0.04891344  0.93999405  0.54543142    -0.84880
O1992       O  0.42877942  0.92265550  0.47901358    -0.85280
O1993       O  0.00961737  0.55407011  0.54624070    -0.85000
O1994       O  0.04141442  0.50846473  0.58371737    -0.84650
O1995       O  0.45972537  0.87630010  0.51652709    -0.85060
O1996       O  0.02792281  0.95450955  0.47956814    -0.85350
O1997       O  0.07420978  0.52945307  0.51923960    -0.86690
Zr1998     Zr  0.45502710  0.91836208  0.50830973     2.83100
Zr1999     Zr  0.01271739  0.51197663  0.55623619     2.83500
Zr2000     Zr  0.46513589  0.49411637  0.50904934     2.84090
Zr2001     Zr  0.00308509  0.93621695  0.55526600     2.83360
Zr2002     Zr  0.03149403  0.98461965  0.50841182     2.84220
O2003       O  0.03142860  0.98372908  0.54388182    -1.07260
O2004       O  0.48392975  0.96586543  0.49665844    -1.06770
C2005       C  0.00792872  0.92995804  0.47268146     1.07890
C2006       C  0.08020803  0.54813705  0.53361067     1.10510
C2007       C  0.42453433  0.94290569  0.47206010     1.08070
C2008       C  0.47342967  0.87037493  0.53015151     1.08430
C2009       C  0.04742436  0.98908670  0.58978056     1.08010
C2010       C  0.99701654  0.56105921  0.53243028     1.07560
C2011       C  0.01949728  0.52584820  0.47277553     1.07990
C2012       C  0.06822429  0.95388394  0.53165043     1.07500
H2013       H  0.02456137  0.53246395  0.51588896     0.34180
O2014       O  0.01269790  0.51287268  0.52064953    -1.28360
H2015       H  0.01056495  0.92542809  0.51463874     0.34200
O2016       O  0.00269586  0.93698410  0.51973781    -1.29750
C2017       C  0.49248565  0.52606433  0.93591605     0.24900
C2018       C  0.50742545  0.54057405  0.95356695    -0.23210
C2019       C  0.02843731  0.56995029  0.95254106     0.19810
C2020       C  0.03366929  0.58499453  0.93414751     0.24840
C2021       C  0.51817861  0.57066140  0.91651476    -0.23150
C2022       C  0.49795274  0.54093234  0.91748962     0.19740
F2023       F  0.48310407  0.52644546  0.90062772    -0.13110
F2024       F  0.47257248  0.99745646  0.93657780    -0.15470
F2025       F  0.05256916  0.61386381  0.93384501    -0.15480
F2026       F  0.04279682  0.58432953  0.96956129    -0.13110
C2027       C  0.43648177  0.61384898  0.85057341     0.24900
C2028       C  0.42146879  0.61502768  0.86785413    -0.23210
C2029       C  0.43166858  0.61340021  0.88717664     0.19810
C2030       C  0.45615833  0.61092304  0.88943533     0.24840
C2031       C  0.47075112  0.60870364  0.87232609    -0.23150
C2032       C  0.46077722  0.61038844  0.85278727     0.19740
F2033       F  0.47403615  0.60801275  0.83588810    -0.13110
F2034       F  0.42719587  0.61518714  0.83159421    -0.15470
F2035       F  0.46602249  0.61150411  0.90858577    -0.15480
F2036       F  0.41837961  0.61509586  0.90414621    -0.13110
C2037       C  0.09158659  0.68435157  0.80177208     0.24900
C2038       C  0.10895607  0.69814350  0.81884152    -0.23210
C2039       C  0.13143122  0.72697562  0.81713968     0.19810
C2040       C  0.13718698  0.74136000  0.79846075     0.24840
C2041       C  0.12036427  0.72720402  0.78131292    -0.23150
C2042       C  0.09713743  0.69887584  0.78317842     0.19740
F2043       F  0.08082495  0.68477254  0.76670383    -0.13110
F2044       F  0.07052693  0.65616672  0.80273367    -0.15470
F2045       F  0.15912875  0.76911968  0.79709298    -0.15480
F2046       F  0.14824119  0.74088172  0.83346489    -0.13110
C2047       C  0.16908567  0.65255286  0.84037552     0.24900
C2048       C  0.15290144  0.65156310  0.85757368    -0.23210
C2049       C  0.16162661  0.64734502  0.87686500     0.19810
C2050       C  0.18625043  0.64456831  0.87887153     0.24840
C2051       C  0.20309259  0.64686403  0.86169354    -0.23150
C2052       C  0.19422989  0.65109890  0.84246497     0.19740
F2053       F  0.20966320  0.65349555  0.82544893    -0.13110
F2054       F  0.16041390  0.65463348  0.82132811    -0.15470
F2055       F  0.19407104  0.64057931  0.89770424    -0.15480
F2056       F  0.14691400  0.64684161  0.89384735    -0.13110
C2057       C  0.07997644  0.76993887  0.10062560     0.24900
C2058       C  0.06859237  0.77136658  0.11957330    -0.23210
C2059       C  0.04101772  0.76835095  0.12055785     0.19810
C2060       C  0.02529264  0.76478158  0.10277963     0.24840
C2061       C  0.03671016  0.76357307  0.08378111    -0.23150
C2062       C  0.06393955  0.76567354  0.08280952     0.19740
F2063       F  0.07541074  0.76478591  0.06457841    -0.13110
F2064       F  0.10708715  0.77400764  0.09931379    -0.15470
F2065       F  0.99885494  0.76249043  0.10405985    -0.15480
F2066       F  0.02927340  0.76867650  0.13877400    -0.13110
C2067       C  0.47749992  0.81230830  0.05519680     0.24900
C2068       C  0.99086671  0.80441191  0.04014994    -0.23210
C2069       C  0.00085003  0.82087546  0.02221633     0.19810
C2070       C  0.99872197  0.84580426  0.01985646     0.24840
C2071       C  0.48660974  0.85437832  0.03542292    -0.23150
C2072       C  0.47515510  0.83694477  0.05273728     0.19740
F2073       F  0.46120641  0.84356833  0.06709485    -0.13110
F2074       F  0.46702071  0.79626178  0.07239247    -0.15470
F2075       F  0.00951177  0.86217816  0.00283543    -0.15480
F2076       F  0.01388392  0.81359291  0.00751275    -0.13110
C2077       C  0.48754925  0.60403716  0.03125914     0.24900
C2078       C  0.46293177  0.57666844  0.03359431    -0.23210
C2079       C  0.43568492  0.57436290  0.03546251     0.19810
C2080       C  0.43288174  0.59896139  0.03395195     0.24840
C2081       C  0.45736723  0.62625419  0.03057182    -0.23150
C2082       C  0.48480280  0.62863617  0.02966762     0.19740
F2083       F  0.50875531  0.65452287  0.02583984    -0.13110
F2084       F  0.51409695  0.60672850  0.02938024    -0.15470
F2085       F  0.40622529  0.59610573  0.03539552    -0.15480
F2086       F  0.41184911  0.54829840  0.03885240    -0.13110
C2087       C  0.40978791  0.68720644  0.97594121     0.24900
C2088       C  0.42359432  0.67101952  0.97966764    -0.23210
C2089       C  0.42093105  0.65064836  0.96502530     0.19810
C2090       C  0.40304532  0.64475609  0.94823020     0.24840
C2091       C  0.38958786  0.66107410  0.94417993    -0.23150
C2092       C  0.39366313  0.68284839  0.95808561     0.19740
F2093       F  0.38101131  0.69906917  0.95494216    -0.13110
F2094       F  0.41089974  0.70648057  0.98985350    -0.15470
F2095       F  0.39875916  0.62259324  0.93606807    -0.15480
F2096       F  0.43576774  0.63625801  0.96679029    -0.13110
C2097       C  0.99818841  0.81527999  0.17559348     0.24900
C2098       C  0.48351848  0.81766340  0.19257510    -0.23210
C2099       C  0.99396230  0.81728549  0.21218925     0.19810
C2100       C  0.01892954  0.81504274  0.21461241     0.24840
C2101       C  0.03411418  0.81388002  0.19743412    -0.23150
C2102       C  0.02347275  0.81425059  0.17795912     0.19740
F2103       F  0.03730723  0.81311721  0.16098379    -0.13110
F2104       F  0.48776809  0.81343956  0.15649532    -0.15470
F2105       F  0.02881441  0.81510335  0.23364975    -0.15480
F2106       F  0.48054863  0.81991507  0.22891253    -0.13110
C2107       C  0.42253157  0.87208626  0.14522931     0.24900
C2108       C  0.43708688  0.85638509  0.14783547    -0.23210
C2109       C  0.45438179  0.85609748  0.13176661     0.19810
C2110       C  0.45920876  0.87295146  0.11453965     0.24840
C2111       C  0.44517745  0.88902080  0.11196923    -0.23150
C2112       C  0.42613530  0.88782640  0.12725847     0.19740
F2113       F  0.41216014  0.90302571  0.12530249    -0.13110
F2114       F  0.40572770  0.87319259  0.16028001    -0.15470
F2115       F  0.97790672  0.87349575  0.10034847    -0.15480
F2116       F  0.46665561  0.83922009  0.13252104    -0.13110
C2117       C  0.35731005  0.72373078  0.25494594     0.24900
C2118       C  0.35161450  0.74670987  0.25541767    -0.23210
C2119       C  0.34256028  0.75327142  0.27374425     0.19810
C2120       C  0.33829823  0.73651420  0.29110940     0.24840
C2121       C  0.34342465  0.71321300  0.29049787    -0.23150
C2122       C  0.35343200  0.70722230  0.27242338     0.19740
F2123       F  0.35790813  0.68440889  0.27140817    -0.13110
F2124       F  0.36511278  0.71630822  0.23729312    -0.15470
F2125       F  0.32921895  0.74305668  0.30856863    -0.15480
F2126       F  0.33765016  0.77581431  0.27476021    -0.13110
C2127       C  0.25045220  0.75756882  0.20587039     0.24900
C2128       C  0.25334375  0.78409677  0.19980143    -0.23210
C2129       C  0.28111730  0.80767001  0.19618843     0.19810
C2130       C  0.30559012  0.80511704  0.19964254     0.24840
C2131       C  0.30263734  0.77863039  0.20612141    -0.23150
C2132       C  0.27474734  0.75467114  0.20853438     0.19740
F2133       F  0.27095186  0.72842066  0.21376292    -0.13110
F2134       F  0.22403248  0.73441993  0.20957414    -0.15470
F2135       F  0.33212459  0.82900355  0.19780493    -0.15480
F2136       F  0.28467565  0.83370008  0.19062151    -0.13110
C2137       C  0.20158733  0.89336361  0.58910032     0.24900
C2138       C  0.18860573  0.91055668  0.58689383    -0.23210
C2139       C  0.17224933  0.91197729  0.60322641     0.19810
C2140       C  0.16740926  0.89525031  0.62068186     0.24840
C2141       C  0.17958965  0.87737568  0.62262556    -0.23150
C2142       C  0.19752333  0.87734814  0.60693523     0.19740
F2143       F  0.21024234  0.86094418  0.60846779    -0.13110
F2144       F  0.21716997  0.89098837  0.57367455    -0.15470
F2145       F  0.15104969  0.89689929  0.63586528    -0.15480
F2146       F  0.16099945  0.92977995  0.60241231    -0.13110
C2147       C  0.11958315  0.97348802  0.54145139     0.24900
C2148       C  0.09445563  0.95147999  0.53233835    -0.23210
C2149       C  0.09412953  0.92656089  0.52522010     0.19810
C2150       C  0.11842185  0.92335143  0.52767634     0.24840
C2151       C  0.14338820  0.94524735  0.53705580    -0.23150
C2152       C  0.14394060  0.97046422  0.54370467     0.19740
F2153       F  0.16765429  0.99152694  0.55329114    -0.13110
F2154       F  0.12002374  0.99727801  0.54904749    -0.15470
F2155       F  0.11742310  0.89872082  0.52132522    -0.15480
F2156       F  0.07018265  0.90522436  0.51617540    -0.13110
C2157       C  0.30467838  0.55169907  0.47967712     0.24900
C2158       C  0.27957669  0.52452819  0.48191329    -0.23210
C2159       C  0.25821274  0.51490499  0.46667350     0.19810
C2160       C  0.26223137  0.53180443  0.44933758     0.24840
C2161       C  0.28782594  0.55843082  0.44678593    -0.23150
C2162       C  0.30884212  0.56837390  0.46224295     0.19740
F2163       F  0.33340609  0.59441026  0.46051992    -0.13110
F2164       F  0.32524084  0.56212514  0.49441354    -0.15470
F2165       F  0.24178892  0.52142226  0.43454275    -0.15480
F2166       F  0.23409920  0.98846706  0.46804883    -0.13110
C2167       C  0.32708011  0.95987598  0.51164390     0.24900
C2168       C  0.32093509  0.97718873  0.52434446    -0.23210
C2169       C  0.33976887  0.49235850  0.54045799     0.19810
C2170       C  0.36502307  0.49097231  0.54339757     0.24840
C2171       C  0.37153222  0.97432764  0.53028103    -0.23150
C2172       C  0.35208501  0.95822892  0.51474133     0.19740
F2173       F  0.35735947  0.94084860  0.50262538    -0.13110
F2174       F  0.30906483  0.94496735  0.49606847    -0.15470
F2175       F  0.38358025  0.50660641  0.55852529    -0.15480
F2176       F  0.33422938  0.50937216  0.55278421    -0.13110
C2177       C  0.15035513  0.95699536  0.70361549     0.24900
C2178       C  0.12612074  0.95513862  0.69370793    -0.23210
C2179       C  0.10298221  0.92764496  0.68854772     0.19810
C2180       C  0.10530816  0.90299692  0.69131889     0.24840
C2181       C  0.13040829  0.90516238  0.69996615    -0.23150
C2182       C  0.15215832  0.93218822  0.70709516     0.19740
F2183       F  0.17605497  0.93500226  0.71642533    -0.13110
F2184       F  0.17329555  0.98298944  0.70873138    -0.15470
F2185       F  0.08302974  0.87702411  0.68536948    -0.15480
F2186       F  0.07824210  0.92462067  0.68043859    -0.13110
C2187       C  0.10808381  0.99580899  0.62313876     0.24900
C2188       C  0.10336774  0.00727994  0.64103437    -0.23210
C2189       C  0.08128804  0.01425786  0.64145637     0.19810
C2190       C  0.06373049  0.00912247  0.62449464     0.24840
C2191       C  0.06760835  0.99659866  0.60692941    -0.23150
C2192       C  0.09015724  0.99029084  0.60624343     0.19740
F2193       F  0.09468641  0.97864231  0.58927359    -0.13110
F2194       F  0.12966886  0.98944223  0.62219418    -0.15470
F2195       F  0.04165123  0.01457522  0.62573692    -0.15480
F2196       F  0.07537473  0.02416079  0.65878031    -0.13110
C2197       C  0.18889422  0.66272984  0.70939613     0.24900
C2198       C  0.16370024  0.63540613  0.70760844    -0.23210
C2199       C  0.13757923  0.63404623  0.70222284     0.19810
C2200       C  0.13653977  0.65943527  0.69933011     0.24840
C2201       C  0.16132693  0.68661171  0.70240090    -0.23150
C2202       C  0.18759054  0.68802538  0.70719198     0.19740
F2203       F  0.21210206  0.71394601  0.70957543    -0.13110
F2204       F  0.21487969  0.66498139  0.71341071    -0.15470
F2205       F  0.11090521  0.65740024  0.69452933    -0.15480
F2206       F  0.11271328  0.60824604  0.70082015    -0.13110
C2207       C  0.22384516  0.58419484  0.75240219     0.24900
C2208       C  0.19891015  0.58667442  0.75365738    -0.23210
C2209       C  0.19107781  0.59342512  0.77240381     0.19810
C2210       C  0.20881789  0.59933914  0.78933072     0.24840
C2211       C  0.23456048  0.59859124  0.78776263    -0.23150
C2212       C  0.24155664  0.59002232  0.76945752     0.19740
F2213       F  0.26612961  0.58855833  0.76789870    -0.13110
F2214       F  0.23183972  0.57770377  0.73445681    -0.15470
F2215       F  0.20071318  0.60540667  0.80736630    -0.15480
F2216       F  0.16640854  0.59467946  0.77419757    -0.13110
C2217       C  0.36122388  0.50314665  0.36997215     0.24900
C2218       C  0.33664522  0.97526906  0.36999492    -0.23210
C2219       C  0.30921285  0.97243244  0.36712080     0.19810
C2220       C  0.30635918  0.49692203  0.36504103     0.24840
C2221       C  0.33076632  0.52469097  0.36619134    -0.23150
C2222       C  0.35825893  0.52762438  0.36834453     0.19740
F2223       F  0.38225877  0.55423828  0.36890087    -0.13110
F2224       F  0.38812604  0.50670760  0.37182428    -0.15470
F2225       F  0.27951177  0.49351966  0.36321330    -0.15480
F2226       F  0.28493225  0.94604228  0.36765660    -0.13110
C2227       C  0.36961707  0.94320912  0.43568795     0.24900
C2228       C  0.37128845  0.92797055  0.41875980    -0.23210
C2229       C  0.38993936  0.91645812  0.41984725     0.19810
C2230       C  0.40674813  0.92051694  0.43734636     0.24840
C2231       C  0.40578745  0.93678857  0.45386357    -0.23150
C2232       C  0.38710608  0.94815397  0.45271435     0.19740
F2233       F  0.38567354  0.96419506  0.46816624    -0.13110
F2234       F  0.35089110  0.95339803  0.43583534    -0.15470
F2235       F  0.42507925  0.90986546  0.43767944    -0.15480
F2236       F  0.39291376  0.90241559  0.40365272    -0.13110
C2237       C  0.27244409  0.76626328  0.35598657     0.24900
C2238       C  0.29714355  0.79382803  0.35826899    -0.23210
C2239       C  0.32260097  0.79559820  0.36599386     0.19810
C2240       C  0.32346861  0.77046307  0.37059846     0.24840
C2241       C  0.29961726  0.74306711  0.36642589    -0.23150
C2242       C  0.27390970  0.74128892  0.35952149     0.19740
F2243       F  0.24999124  0.71526273  0.35627248    -0.13110
F2244       F  0.24667706  0.76334834  0.35033316    -0.15470
F2245       F  0.34813700  0.77301835  0.37831384    -0.15480
F2246       F  0.34715355  0.82150272  0.36819277    -0.13110
C2247       C  0.23113022  0.81180597  0.30916197     0.24900
C2248       C  0.25647296  0.83865182  0.31238204    -0.23210
C2249       C  0.26342079  0.86095368  0.29814723     0.19810
C2250       C  0.24605749  0.85611901  0.28084832     0.24840
C2251       C  0.22173982  0.82872288  0.27717378    -0.23150
C2252       C  0.21434564  0.80679595  0.29170030     0.19740
F2253       F  0.19044908  0.78041287  0.28919354    -0.13110
F2254       F  0.22231135  0.79020958  0.32305920    -0.15470
F2255       F  0.25379730  0.87790836  0.26725189    -0.15480
F2256       F  0.28768213  0.88706954  0.30043554    -0.13110
C2257       C  0.44674658  0.51082431  0.12810720     0.24900
C2258       C  0.42891976  0.99647153  0.11133542    -0.23210
C2259       C  0.39936767  0.98750533  0.11231368     0.19810
C2260       C  0.38765418  0.99216513  0.12985368     0.24840
C2261       C  0.40506947  0.00523203  0.14707014    -0.23150
C2262       C  0.43486085  0.51497417  0.14593176     0.19740
F2263       F  0.45221617  0.52734997  0.16230421    -0.13110
F2264       F  0.47537352  0.51957629  0.12759227    -0.15470
F2265       F  0.35913552  0.98395717  0.12995654    -0.15480
F2266       F  0.38178282  0.97444640  0.09613518    -0.13110
C2267       C  0.29292698  0.90974659  0.20234776     0.24900
C2268       C  0.26760911  0.90985665  0.19695206    -0.23210
C2269       C  0.26924290  0.93554274  0.19022829     0.19810
C2270       C  0.29602613  0.96084444  0.18855962     0.24840
C2271       C  0.32149377  0.96063665  0.19343912    -0.23150
C2272       C  0.31977507  0.93499798  0.20053147     0.19740
F2273       F  0.34417401  0.93438770  0.20533413    -0.13110
F2274       F  0.29160175  0.88518356  0.20923794    -0.15470
F2275       F  0.29726787  0.98511756  0.18108883    -0.15480
F2276       F  0.24498841  0.93570875  0.18434329    -0.13110
C2277       C  0.35456151  0.61059324  0.26979414     0.24900
C2278       C  0.36065715  0.60302409  0.28880506    -0.23210
C2279       C  0.37786796  0.59007289  0.29007054     0.19810
C2280       C  0.38948046  0.58533539  0.27237049     0.24840
C2281       C  0.38388928  0.59353768  0.25337484    -0.23150
C2282       C  0.36616814  0.60592656  0.25215850     0.19740
F2283       F  0.36064524  0.61401824  0.23388358    -0.13110
F2284       F  0.33770561  0.62287375  0.26839882    -0.15470
F2285       F  0.40688393  0.57367981  0.27377388    -0.15480
F2286       F  0.38399498  0.58279596  0.30844592    -0.13110
C2287       C  0.46670342  0.67042039  0.20610118     0.24900
C2288       C  0.46238875  0.64250231  0.20263600    -0.23210
C2289       C  0.48567292  0.63983992  0.19517434     0.19810
C2290       C  0.01289180  0.66430851  0.19239356     0.24840
C2291       C  0.01774083  0.69183492  0.19772776    -0.23150
C2292       C  0.99419049  0.69475677  0.20403019     0.19740
F2293       F  0.99779426  0.72121345  0.20827466    -0.13110
F2294       F  0.44439608  0.67417067  0.21187027    -0.15470
F2295       F  0.03494014  0.66080080  0.18567389    -0.15480
F2296       F  0.48276794  0.61345901  0.19188139    -0.13110
C2297       C  0.47996263  0.64491396  0.37479950     0.24900
C2298       C  0.49042676  0.64620655  0.35492289    -0.23210
C2299       C  0.47340282  0.64546923  0.33833003     0.19810
C2300       C  0.44725145  0.64471561  0.34146305     0.24840
C2301       C  0.43693784  0.64394307  0.36128986    -0.23150
C2302       C  0.45331895  0.64354758  0.37795287     0.19740
F2303       F  0.44408604  0.64288845  0.39729458    -0.13110
F2304       F  0.49598867  0.64608873  0.39118224    -0.15470
F2305       F  0.43170490  0.64412764  0.32493229    -0.15480
F2306       F  0.48193088  0.64517210  0.31890392    -0.13110
C2307       C  0.09233340  0.69431153  0.27801888     0.24900
C2308       C  0.09968811  0.72345138  0.27770308    -0.23210
C2309       C  0.09834387  0.73669441  0.29576885     0.19810
C2310       C  0.08839166  0.72066279  0.31374708     0.24840
C2311       C  0.07986562  0.69117120  0.31392919    -0.23150
C2312       C  0.08238232  0.67822667  0.29601121     0.19740
F2313       F  0.07353079  0.64960163  0.29565179    -0.13110
F2314       F  0.09355535  0.68115207  0.26068984    -0.15470
F2315       F  0.08652754  0.73373883  0.33091851    -0.15480
F2316       F  0.10697030  0.76523876  0.29600219    -0.13110
C2317       C  0.07111427  0.58248742  0.43594078     0.24900
C2318       C  0.05322270  0.57782005  0.41896380    -0.23210
C2319       C  0.02357761  0.55740574  0.42040716     0.19810
C2320       C  0.01233454  0.54104677  0.43818225     0.24840
C2321       C  0.03064756  0.54459794  0.45465759    -0.23150
C2322       C  0.06001056  0.56581959  0.45350890     0.19740
F2323       F  0.07800265  0.57045347  0.46944583    -0.13110
F2324       F  0.09956318  0.60295578  0.43538197    -0.15470
F2325       F  0.48389889  0.52057380  0.43883682    -0.15480
F2326       F  0.50584067  0.55206949  0.40420518    -0.13110
C2327       C  0.18255900  0.63551011  0.36132703     0.24900
C2328       C  0.18736392  0.61263965  0.36620922    -0.23210
C2329       C  0.16350157  0.58544296  0.37080631     0.19810
C2330       C  0.13558191  0.58159988  0.37139695     0.24840
C2331       C  0.13106879  0.60512522  0.36804801    -0.23150
C2332       C  0.15484565  0.63194233  0.36247528     0.19740
F2333       F  0.15174351  0.65537885  0.35953891    -0.13110
F2334       F  0.20499908  0.66195843  0.35661153    -0.15470
F2335       F  0.11298706  0.55495622  0.37566899    -0.15480
F2336       F  0.16718196  0.56254704  0.37469526    -0.13110
C2337       C  0.34685906  0.97389615  0.02766440     0.24900
C2338       C  0.35102895  0.95039303  0.03166721    -0.23210
C2339       C  0.32687636  0.92350428  0.03636723     0.19810
C2340       C  0.29944039  0.92044185  0.03817241     0.24840
C2341       C  0.29564705  0.94451300  0.03594716    -0.23150
C2342       C  0.31955043  0.97115072  0.03011698     0.19740
F2343       F  0.31697931  0.99502658  0.02805263    -0.13110
F2344       F  0.36950486  0.99998987  0.02246728    -0.15470
F2345       F  0.27660794  0.89395047  0.04247632    -0.15480
F2346       F  0.32980914  0.90005828  0.03918399    -0.13110
C2347       C  0.23313376  0.91841837  0.10412960     0.24900
C2348       C  0.21634784  0.91349370  0.08651352    -0.23210
C2349       C  0.18689537  0.89213971  0.08688261     0.19810
C2350       C  0.17477029  0.87529869  0.10433758     0.24840
C2351       C  0.19202169  0.87934862  0.12153758    -0.23150
C2352       C  0.22113752  0.90134119  0.12141774     0.19740
F2353       F  0.23796332  0.90634385  0.13812115    -0.13110
F2354       F  0.26127721  0.93968900  0.10453320    -0.15470
F2355       F  0.14662849  0.85399942  0.10404759    -0.15480
F2356       F  0.17026820  0.88653314  0.07000295    -0.13110
C2357       C  0.21974879  0.52184844  0.96343987     0.24900
C2358       C  0.23733200  0.52375106  0.98004665    -0.23210
C2359       C  0.26759633  0.54079476  0.97798134     0.19810
C2360       C  0.27984548  0.55584282  0.95985508     0.24840
C2361       C  0.26206667  0.55471665  0.94367262    -0.23150
C2362       C  0.23192744  0.53745128  0.94565226     0.19740
F2363       F  0.21409298  0.53525401  0.93016773    -0.13110
F2364       F  0.19059825  0.50437703  0.96418444    -0.15470
F2365       F  0.30903672  0.57249920  0.95848642    -0.15480
F2366       F  0.28535355  0.54380180  0.99371069    -0.13110
C2367       C  0.12439108  0.50473157  0.03721106     0.24900
C2368       C  0.09932379  0.97862668  0.03249503    -0.23210
C2369       C  0.10158261  0.95504907  0.02556738     0.19810
C2370       C  0.12874640  0.95773548  0.02286322     0.24840
C2371       C  0.15394113  0.48402257  0.02714113    -0.23150
C2372       C  0.15160769  0.50740966  0.03459606     0.19740
F2373       F  0.17569504  0.53287920  0.03905119    -0.13110
F2374       F  0.12243772  0.52762180  0.04411850    -0.15470
F2375       F  0.13053518  0.93521263  0.01500346    -0.15480
F2376       F  0.07750152  0.92993295  0.02043492    -0.13110
C2377       C  0.21514203  0.74031440  0.60477382     0.24900
C2378       C  0.22153194  0.75830673  0.58764187    -0.23210
C2379       C  0.21394410  0.77992225  0.58764910     0.19810
C2380       C  0.20096133  0.78407680  0.60474955     0.24840
C2381       C  0.19550677  0.76683515  0.62213380    -0.23150
C2382       C  0.20215946  0.74454402  0.62194099     0.19740
F2383       F  0.19743343  0.72789110  0.63870344    -0.13110
F2384       F  0.22278449  0.71963274  0.60522715    -0.15470
F2385       F  0.19348042  0.80484165  0.60433443    -0.15480
F2386       F  0.21925147  0.79708061  0.57109599    -0.13110
C2387       C  0.33153054  0.81257945  0.55964699     0.24900
C2388       C  0.30980066  0.80196887  0.54476118    -0.23210
C2389       C  0.31510155  0.81644081  0.52598381     0.19810
C2390       C  0.34168732  0.84156594  0.52234382     0.24840
C2391       C  0.36307656  0.85250762  0.53751442    -0.23150
C2392       C  0.35789969  0.83764798  0.55607507     0.19740
F2393       F  0.37853166  0.84744707  0.57076273    -0.13110
F2394       F  0.32707962  0.79867138  0.57773080    -0.15470
F2395       F  0.34601043  0.85595937  0.50448615    -0.15480
F2396       F  0.29408545  0.80697705  0.51159702    -0.13110
C2397       C  0.14137625  0.62555258  0.53661535     0.24900
C2398       C  0.16540404  0.62261080  0.53169937    -0.23210
C2399       C  0.16146196  0.59470999  0.52922129     0.19810
C2400       C  0.13378868  0.57045799  0.53000484     0.24840
C2401       C  0.10964343  0.57350979  0.53404723    -0.23150
C2402       C  0.11378328  0.60118246  0.53797926     0.19740
F2403       F  0.09083988  0.60485057  0.54175533    -0.13110
F2404       F  0.14421426  0.65211283  0.53864755    -0.15470
F2405       F  0.13057301  0.54400433  0.52655619    -0.15480
F2406       F  0.18438580  0.59100565  0.52543798    -0.13110
C2407       C  0.28332877  0.67076610  0.46365589     0.24900
C2408       C  0.26703994  0.66221076  0.44565985    -0.23210
C2409       C  0.23913653  0.65856864  0.44555642     0.19810
C2410       C  0.22766650  0.66331407  0.46327222     0.24840
C2411       C  0.24395994  0.67173992  0.48131818    -0.23150
C2412       C  0.27199736  0.67574553  0.48134263     0.19740
F2413       F  0.28766319  0.68271004  0.49880150    -0.13110
F2414       F  0.30928973  0.67217497  0.46449927    -0.15470
F2415       F  0.20048253  0.65927862  0.46293998    -0.15480
F2416       F  0.22294008  0.65017759  0.42833275    -0.13110
C2417       C  0.34348312  0.70644814  0.77045198     0.24900
C2418       C  0.36140712  0.70821166  0.78674419    -0.23210
C2419       C  0.39134560  0.72710322  0.78527299     0.19810
C2420       C  0.40328578  0.74327308  0.76766812     0.24840
C2421       C  0.38566611  0.74039334  0.75086435    -0.23150
C2422       C  0.35555276  0.72227136  0.75257176     0.19740
F2423       F  0.33795240  0.71883357  0.73663246    -0.13110
F2424       F  0.31445727  0.68835946  0.77143930    -0.15470
F2425       F  0.43224171  0.76183115  0.76708256    -0.15480
F2426       F  0.40914186  0.73014689  0.80100887    -0.13110
C2427       C  0.01506166  0.78760169  0.71955080     0.24900
C2428       C  0.02420109  0.78194373  0.70099751    -0.23210
C2429       C  0.50564142  0.77358037  0.68403982     0.19810
C2430       C  0.47788352  0.77012542  0.68588998     0.24840
C2431       C  0.46864665  0.77530865  0.70465529    -0.23150
C2432       C  0.48778146  0.78464937  0.72129805     0.19740
F2433       F  0.48011390  0.79124982  0.73934008    -0.13110
F2434       F  0.03286725  0.79658914  0.73598673    -0.15470
F2435       F  0.45978249  0.76085444  0.66964447    -0.15480
F2436       F  0.01396313  0.76770935  0.66599308    -0.13110
C2437       C  0.28155868  0.80803515  0.67546123     0.24900
C2438       C  0.27182109  0.80866147  0.69526731    -0.23210
C2439       C  0.28937214  0.81083012  0.71192440     0.19810
C2440       C  0.31655294  0.81333830  0.70872945     0.24840
C2441       C  0.32646234  0.81337754  0.68883741    -0.23150
C2442       C  0.30837563  0.81016944  0.67230911     0.19740
F2443       F  0.31649784  0.80868811  0.65296859    -0.13110
F2444       F  0.26481719  0.80480863  0.65900645    -0.15470
F2445       F  0.33360791  0.81680962  0.72502651    -0.15480
F2446       F  0.28075973  0.81167531  0.73122114    -0.13110
C2447       C  0.42819479  0.88770926  0.64760743     0.24900
C2448       C  0.41604007  0.85757911  0.64731206    -0.23210
C2449       C  0.41671970  0.84390422  0.62922169     0.19810
C2450       C  0.42875130  0.86008908  0.61150765     0.24840
C2451       C  0.44005145  0.89007946  0.61167466    -0.23150
C2452       C  0.44009476  0.90386737  0.62986799     0.19740
F2453       F  0.45146773  0.93295696  0.63035188    -0.13110
F2454       F  0.42811378  0.90134205  0.66500058    -0.15470
F2455       F  0.42805819  0.84636806  0.59396069    -0.15480
F2456       F  0.40437067  0.81471570  0.62848918    -0.13110
C2457       C  0.15441334  0.97179685  0.86528785     0.24900
C2458       C  0.13033784  0.97539545  0.86859651    -0.23210
C2459       C  0.13455189  0.50358202  0.86885126     0.19810
C2460       C  0.16238758  0.52759996  0.86697154     0.24840
C2461       C  0.18648680  0.52390222  0.86445853    -0.23150
C2462       C  0.18214934  0.49579732  0.86308742     0.19740
F2463       F  0.20502287  0.99155484  0.86096478    -0.13110
F2464       F  0.15143751  0.94505480  0.86555907    -0.15470
F2465       F  0.16583643  0.55452820  0.86767672    -0.15480
F2466       F  0.11174194  0.50788657  0.87119915    -0.13110
C2467       C  0.02099836  0.91249958  0.92265260     0.24900
C2468       C  0.05124072  0.92705955  0.91983854    -0.23210
C2469       C  0.06889927  0.94457154  0.93587716     0.19810
C2470       C  0.05679510  0.94915220  0.95337625     0.24840
C2471       C  0.02660602  0.93549268  0.95586124    -0.23150
C2472       C  0.00889568  0.91624039  0.94059962     0.19740
F2473       F  0.47973707  0.90179780  0.94262532    -0.13110
F2474       F  0.50295039  0.89561467  0.90768845    -0.15470
F2475       F  0.07484181  0.96681186  0.96807415    -0.15480
F2476       F  0.09812402  0.95725209  0.93479141    -0.13110
C2477       C  0.46403170  0.79458592  0.85743666     0.24900
C2478       C  0.48986221  0.79369209  0.85685984    -0.23210
C2479       C  0.48862620  0.76693034  0.85962019     0.19810
C2480       C  0.46207766  0.74155298  0.86237568     0.24840
C2481       C  0.43631112  0.74247648  0.86274196    -0.23150
C2482       C  0.43751088  0.76916124  0.86027085     0.19740
F2483       F  0.41278742  0.77028206  0.85916895    -0.13110
F2484       F  0.46427591  0.81975985  0.85409119    -0.15470
F2485       F  0.46150575  0.71603263  0.86462650    -0.15480
F2486       F  0.01320743  0.76534761  0.85952172    -0.13110
C2487       C  0.08926576  0.85912977  0.79824895     0.24900
C2488       C  0.07851104  0.83890518  0.81427237    -0.23210
C2489       C  0.08138924  0.81416462  0.81294489     0.19810
C2490       C  0.09326804  0.80897203  0.79559431     0.24840
C2491       C  0.10307028  0.82863850  0.77929476    -0.23150
C2492       C  0.10161507  0.85412107  0.78096920     0.19740
F2493       F  0.11065880  0.87338532  0.76538443    -0.13110
F2494       F  0.08633793  0.88291242  0.79878088    -0.15470
F2495       F  0.09528704  0.78466914  0.79474780    -0.15480
F2496       F  0.07235700  0.79475620  0.82844071    -0.13110
C2497       C  0.24783530  0.57633162  0.27225068     0.24900
C2498       C  0.23862469  0.58818709  0.28760313    -0.23210
C2499       C  0.21333794  0.58968317  0.28447023     0.19810
C2500       C  0.19674405  0.57805457  0.26678891     0.24840
C2501       C  0.20541398  0.56515095  0.25177297    -0.23150
C2502       C  0.23164827  0.56528722  0.25447363     0.19740
F2503       F  0.24160436  0.55449238  0.23988203    -0.13110
F2504       F  0.27274982  0.57561351  0.27437807    -0.15470
F2505       F  0.17145295  0.57806028  0.26489289    -0.15480
F2506       F  0.20387815  0.60105383  0.29898198    -0.13110
C2507       C  0.13279747  0.92630897  0.19978640     0.24900
C2508       C  0.15732160  0.92319005  0.20168502    -0.23210
C2509       C  0.18414460  0.94764765  0.20601949     0.19810
C2510       C  0.18643887  0.97462241  0.20864578     0.24840
C2511       C  0.16168557  0.97763345  0.20793173    -0.23150
C2512       C  0.13484872  0.95317285  0.20317264     0.19740
F2513       F  0.11031495  0.95480910  0.20281629    -0.13110
F2514       F  0.10650745  0.90299586  0.19581013    -0.15470
F2515       F  0.21304447  0.99787898  0.21192211    -0.15480
F2516       F  0.20829125  0.94547320  0.20769165    -0.13110
C2517       C  0.05756416  0.99656021  0.12651229     0.24900
C2518       C  0.05414314  0.51406976  0.11201902    -0.23210
C2519       C  0.06873325  0.54415318  0.11520757     0.19810
C2520       C  0.08653101  0.55642482  0.13206393     0.24840
C2521       C  0.08859586  0.53895785  0.14727222    -0.23150
C2522       C  0.07416476  0.50880992  0.14414215     0.19740
F2523       F  0.07504063  0.99099378  0.15848813    -0.13110
F2524       F  0.04369260  0.96744296  0.12418374    -0.15470
F2525       F  0.10185149  0.58569343  0.13338380    -0.15480
F2526       F  0.06576796  0.56207014  0.10206131    -0.13110
C2527       C  0.09656676  0.62154144  0.19983269     0.24900
C2528       C  0.12109387  0.61862261  0.19686843    -0.23210
C2529       C  0.14839369  0.64364897  0.19522587     0.19810
C2530       C  0.15103009  0.67096908  0.19591230     0.24840
C2531       C  0.12659211  0.67391235  0.19851054    -0.23150
C2532       C  0.09934038  0.64902880  0.20071982     0.19740
F2533       F  0.07549283  0.65136977  0.20373892    -0.13110
F2534       F  0.06992394  0.59776848  0.20150407    -0.15470
F2535       F  0.17727133  0.69459659  0.19267326    -0.15480
F2536       F  0.17231580  0.64163583  0.19148902    -0.13110
C2537       C  0.16745853  0.97271958  0.34323766     0.24900
C2538       C  0.15568735  0.95380504  0.35988286    -0.23210
C2539       C  0.16783083  0.96322488  0.37930907     0.19810
C2540       C  0.19196239  0.99090095  0.38184164     0.24840
C2541       C  0.20434077  0.50920939  0.36492572    -0.23150
C2542       C  0.19162778  0.49993479  0.34568541     0.19740
F2543       F  0.20236322  0.51749790  0.32918521    -0.13110
F2544       F  0.15530815  0.96492799  0.32449614    -0.15470
F2545       F  0.20387867  0.99932587  0.40059049    -0.15480
F2546       F  0.15699272  0.94533483  0.39561662    -0.13110
C2547       C  0.12804076  0.87716720  0.27892540     0.24900
C2548       C  0.11499413  0.84714519  0.27652556    -0.23210
C2549       C  0.09820797  0.82883326  0.29242586     0.19810
C2550       C  0.09640429  0.84043560  0.31103728     0.24840
C2551       C  0.11032600  0.87058719  0.31369476    -0.23150
C2552       C  0.12529807  0.88874097  0.29714597     0.19740
F2553       F  0.13706342  0.91781473  0.29842379    -0.13110
F2554       F  0.14330975  0.89542152  0.26350607    -0.15470
F2555       F  0.08195804  0.82214940  0.32661674    -0.15480
F2556       F  0.08453001  0.79972077  0.29027993    -0.13110
C2557       C  0.50814455  0.87502297  0.43719800     0.24900
C2558       C  0.02271834  0.89208310  0.42019213    -0.23210
C2559       C  0.03469856  0.92224397  0.42123324     0.19810
C2560       C  0.03096755  0.93491655  0.43869527     0.24840
C2561       C  0.01477955  0.91752386  0.45512862    -0.23150
C2562       C  0.50394922  0.88758016  0.45440939     0.19740
F2563       F  0.48927167  0.87040115  0.47043461    -0.13110
F2564       F  0.49784461  0.84608911  0.43713842    -0.15470
F2565       F  0.04180984  0.96392873  0.43909567    -0.15480
F2566       F  0.04875999  0.93928468  0.40501595    -0.13110
C2567       C  0.44737253  0.80965022  0.36877690     0.24900
C2568       C  0.47454444  0.81178124  0.37100626    -0.23210
C2569       C  0.47647240  0.78650982  0.37030252     0.19810
C2570       C  0.45149586  0.75949774  0.36827971     0.24840
C2571       C  0.42424427  0.75734377  0.36707183    -0.23150
C2572       C  0.42244248  0.78261503  0.36679325     0.19740
F2573       F  0.39657574  0.78110360  0.36433440    -0.13110
F2574       F  0.44498721  0.83376378  0.36879164    -0.15470
F2575       F  0.45375660  0.73531480  0.36857944    -0.16680
F2576       F  0.50232153  0.78782694  0.37284053    -0.13110
C2577       C  0.12521817  0.63435363  0.02321246     0.24900
C2578       C  0.14049338  0.64063147  0.04168487    -0.23210
C2579       C  0.13050039  0.61979311  0.05719857     0.19810
C2580       C  0.10516282  0.59341402  0.05453751     0.24840
C2581       C  0.08912227  0.58763555  0.03652651    -0.23150
C2582       C  0.09963511  0.60791950  0.02063753     0.19740
F2583       F  0.08458451  0.60257320  0.00300519    -0.13110
F2584       F  0.13431852  0.65434996  0.00810645    -0.15470
F2585       F  0.09659734  0.57312259  0.06935089    -0.15480
F2586       F  0.14525758  0.62512144  0.07497840    -0.13110
C2587       C  0.15478702  0.72875108  0.08587679     0.24900
C2588       C  0.18173423  0.73092184  0.08200263    -0.23210
C2589       C  0.20445410  0.74622329  0.09592037     0.19810
C2590       C  0.19992991  0.75807159  0.11364281     0.24840
C2591       C  0.17241367  0.75418513  0.11806208    -0.23150
C2592       C  0.14999591  0.73954638  0.10387774     0.19740
F2593       F  0.12317692  0.73540075  0.10746197    -0.13110
F2594       F  0.13277602  0.71575143  0.07230284    -0.15470
F2595       F  0.22203179  0.77184622  0.12704118    -0.15480
F2596       F  0.23059203  0.74833424  0.09300756    -0.13110
C2597       C  0.25494015  0.68088436  0.94374702     0.24900
C2598       C  0.28102520  0.68051884  0.94202889    -0.23210
C2599       C  0.30126573  0.69208283  0.95786237     0.19810
C2600       C  0.29599247  0.70434606  0.97484036     0.24840
C2601       C  0.27061269  0.70615286  0.97623141    -0.23150
C2602       C  0.24985209  0.69382231  0.96064093     0.19740
F2603       F  0.22522847  0.69527655  0.96131725    -0.13110
F2604       F  0.23495095  0.66985741  0.92867847    -0.15470
F2605       F  0.31576863  0.71425972  0.99010676    -0.15480
F2606       F  0.32610071  0.69104795  0.95708689    -0.13110
C2607       C  0.36955499  0.81813787  0.02417047     0.24900
C2608       C  0.36735379  0.84136019  0.03210644    -0.23210
C2609       C  0.34003494  0.83652718  0.03815755     0.19810
C2610       C  0.31509593  0.81014295  0.03416309     0.24840
C2611       C  0.31710807  0.78736955  0.02509687    -0.23150
C2612       C  0.34480257  0.79128947  0.02113594     0.19740
F2613       F  0.34801091  0.76917187  0.01415025    -0.13110
F2614       F  0.39573606  0.82135355  0.01938968    -0.15470
F2615       F  0.28898832  0.80759550  0.03815102    -0.15480
F2616       F  0.33721565  0.85773599  0.04714767    -0.13110
C2617       C  0.06063138  0.75888227  0.58718223     0.24900
C2618       C  0.04279966  0.72894155  0.58459997    -0.23210
C2619       C  0.03897015  0.71038612  0.60097915     0.19810
C2620       C  0.05418837  0.72121039  0.61903820     0.24840
C2621       C  0.07289196  0.75099626  0.62140446    -0.23150
C2622       C  0.07546583  0.76987752  0.60553267     0.19740
F2623       F  0.09336269  0.79881525  0.60741560    -0.13110
F2624       F  0.06454910  0.77734290  0.57171922    -0.15470
F2625       F  0.05034814  0.70250184  0.63433067    -0.15480
F2626       F  0.02012377  0.68163955  0.59961376    -0.13110
C2627       C  0.00038472  0.60592784  0.51656924     0.24900
C2628       C  0.00133982  0.59064894  0.53377878    -0.23210
C2629       C  0.00649877  0.60392522  0.55291805     0.19810
C2630       C  0.00984527  0.63121927  0.55501942     0.24840
C2631       C  0.00957420  0.64715074  0.53794649    -0.23150
C2632       C  0.00487925  0.63410225  0.51858677     0.19740
F2633       F  0.00520579  0.64865777  0.50157255    -0.13110
F2634       F  0.49580731  0.59393979  0.49776145    -0.15470
F2635       F  0.01212181  0.64131082  0.57421889    -0.15480
F2636       F  0.00723978  0.59005490  0.57004638    -0.13110
C2637       C  0.49452167  0.81510271  0.51619688     0.24900
C2638       C  0.47130397  0.78970280  0.52406954    -0.23210
C2639       C  0.44881445  0.79092898  0.53430516     0.19810
C2640       C  0.44952896  0.81731557  0.53656227     0.24840
C2641       C  0.47256720  0.84260716  0.52839733    -0.23150
C2642       C  0.49500411  0.84135860  0.51822273     0.19740
F2643       F  0.01675936  0.86543793  0.50954354    -0.13110
F2644       F  0.01598247  0.81419438  0.50576852    -0.15470
F2645       F  0.42756060  0.81813904  0.54632450    -0.15480
F2646       F  0.42587069  0.76642238  0.54163750    -0.13110
C2647       C  0.43266350  0.68738487  0.46696470     0.24900
C2648       C  0.42517364  0.70190296  0.48151007    -0.23210
C2649       C  0.40024832  0.70397615  0.47820022     0.19810
C2650       C  0.38479577  0.69421255  0.46012219     0.24840
C2651       C  0.39215652  0.67978898  0.44554397    -0.23150
C2652       C  0.41592845  0.67590321  0.44933963     0.19740
F2653       F  0.42402350  0.66252721  0.43545223    -0.13110
F2654       F  0.45697316  0.68559948  0.46920350    -0.15470
F2655       F  0.36273534  0.69930606  0.45683000    -0.15480
F2656       F  0.39095352  0.71595168  0.49238822    -0.13110
C2657       C  0.35436801  0.80584325  0.87709650     0.24900
C2658       C  0.33053164  0.80957728  0.87322790    -0.23210
C2659       C  0.30515805  0.78620968  0.86510523     0.19810
C2660       C  0.30343099  0.75952911  0.86164779     0.24840
C2661       C  0.32665803  0.75541425  0.86686592    -0.23150
C2662       C  0.35213411  0.77893254  0.87455507     0.19740
F2663       F  0.37488080  0.77584219  0.88005092    -0.13110
F2664       F  0.37990691  0.82821406  0.88363112    -0.15470
F2665       F  0.27830596  0.73720478  0.85451964    -0.15480
F2666       F  0.28138431  0.78856511  0.86161327    -0.13110
C2667       C  0.35428404  0.90296947  0.93674572     0.24900
C2668       C  0.36429577  0.89192710  0.92128652    -0.23210
C2669       C  0.39237038  0.89602530  0.92264952     0.19810
C2670       C  0.40949094  0.90946923  0.93955197     0.24840
C2671       C  0.39918328  0.91948115  0.95534941    -0.23150
C2672       C  0.37175445  0.91685398  0.95365635     0.19740
F2673       F  0.36137854  0.92643827  0.96877927    -0.13110
F2674       F  0.32725262  0.89926424  0.93591473    -0.15470
F2675       F  0.43641079  0.91296266  0.94043772    -0.15480
F2676       F  0.40338028  0.88713746  0.90748969    -0.13110
C2677       C  0.21969813  0.85482478  0.81594144     0.24900
C2678       C  0.24875824  0.86221405  0.81795535    -0.23210
C2679       C  0.26304675  0.85811065  0.80140756     0.19810
C2680       C  0.24867778  0.84752104  0.78293272     0.24840
C2681       C  0.22003708  0.84129972  0.78073228    -0.23150
C2682       C  0.20545446  0.84453536  0.79740349     0.19740
F2683       F  0.17741770  0.83774354  0.79567411    -0.13110
F2684       F  0.20534745  0.85808967  0.83183142    -0.15470
F2685       F  0.26318587  0.84490844  0.76686461    -0.15480
F2686       F  0.29144162  0.86607967  0.80274895    -0.13110
C2687       C  0.29670782  0.96416782  0.87811095     0.24900
C2688       C  0.29274801  0.95195703  0.85852055    -0.23210
C2689       C  0.29145721  0.96761763  0.84175963     0.19810
C2690       C  0.29212344  0.49367076  0.84450750     0.24840
C2691       C  0.29674646  0.50638882  0.86391684    -0.23150
C2692       C  0.29923998  0.99142332  0.88074014     0.19740
F2693       F  0.30315190  0.50263931  0.89974693    -0.13110
F2694       F  0.29723282  0.94941967  0.89477226    -0.15470
F2695       F  0.28826904  0.50641376  0.82790070    -0.15480
F2696       F  0.28986454  0.95793543  0.82243161    -0.13110
C2697       C  0.01060297  0.62356613  0.69751231     0.24900
C2698       C  0.98566792  0.62318257  0.69020637    -0.23210
C2699       C  0.98601879  0.64936596  0.68732542     0.19810
C2700       C  0.01131812  0.67563760  0.69101758     0.24840
C2701       C  0.03647560  0.67597258  0.69764474    -0.23150
C2702       C  0.03583786  0.64981930  0.70123135     0.19740
F2703       F  0.05964184  0.64975588  0.70831894    -0.13110
F2704       F  0.01050780  0.59845648  0.70085865    -0.15470
F2705       F  0.01170557  0.70079289  0.68723514    -0.15480
F2706       F  0.46232255  0.64947546  0.68000734    -0.13110
C2707       C  0.42200809  0.52323653  0.63116348     0.24900
C2708       C  0.44309676  0.53579248  0.64656215    -0.23210
C2709       C  0.46895595  0.53509573  0.64447933     0.19810
C2710       C  0.47441875  0.52396315  0.62692220     0.24840
C2711       C  0.45379785  0.51207850  0.61131942    -0.23150
C2712       C  0.42718805  0.51116483  0.61381165     0.19740
F2713       F  0.40680855  0.49997533  0.59898241    -0.13110
F2714       F  0.39701882  0.52395545  0.63237429    -0.15470
F2715       F  0.00001036  0.52471918  0.62523209    -0.15480
F2716       F  0.98917847  0.54540060  0.65945467    -0.13110
C2717       C  0.28528903  0.92764631  0.69581133     0.24900
C2718       C  0.25733749  0.92323386  0.69898450    -0.23210
C2719       C  0.25394563  0.94719837  0.70282100     0.19810
C2720       C  0.27803952  0.97486475  0.70448403     0.24840
C2721       C  0.30615739  0.97910015  0.70271253    -0.23150
C2722       C  0.30950650  0.95528853  0.69781527     0.19740
F2723       F  0.33624350  0.95837634  0.69625344    -0.13110
F2724       F  0.28928982  0.90493753  0.69200685    -0.15470
F2725       F  0.27387506  0.99751050  0.70813557    -0.15480
F2726       F  0.22720460  0.94382128  0.70493617    -0.13110
C2727       C  0.35624984  0.60084642  0.77010990     0.24900
C2728       C  0.34457761  0.58379828  0.78765752    -0.23210
C2729       C  0.33927176  0.55531468  0.78761463     0.19810
C2730       C  0.34388340  0.54342181  0.77007844     0.24840
C2731       C  0.35418902  0.55991072  0.75217875    -0.23150
C2732       C  0.36098048  0.58897593  0.75247582     0.19740
F2733       F  0.37082696  0.60542913  0.73541563    -0.13110
F2734       F  0.36185825  0.62856716  0.76976294    -0.15470
F2735       F  0.33826449  0.51569575  0.77057869    -0.15480
F2736       F  0.33024802  0.53917601  0.80477051    -0.13110
C2737       C  0.85571096  0.04608364  0.73296322     0.04430
C2738       C  0.88126794  0.05758505  0.72148654    -0.11720
C2739       C  0.88243783  0.04488894  0.70280658     0.01930
C2740       C  0.85684609  0.02001296  0.69620682    -0.10240
C2741       C  0.83168420  0.00738373  0.70820060     0.04420
C2742       C  0.83129886  0.02081582  0.72636691    -0.09670
H2743       H  0.90012295  0.07594017  0.72780961     0.10020
H2744       H  0.85591589  0.01004888  0.68175153     0.07550
H2745       H  0.81195195  0.01130175  0.73566793     0.07390
C2746       C  0.93961605  0.05199294  0.66374860     0.04430
C2747       C  0.91384302  0.04062861  0.67508866    -0.11720
C2748       C  0.91017069  0.05700652  0.69062020     0.01930
C2749       C  0.93375692  0.08493212  0.69469225    -0.10240
C2750       C  0.96009888  0.09546904  0.68441421     0.04420
C2751       C  0.96259377  0.07936965  0.66870309    -0.09670
H2752       H  0.89725239  0.01874809  0.67183993     0.10020
H2753       H  0.93237765  0.09887377  0.70592783     0.07550
H2754       H  0.48261681  0.08851278  0.66016046     0.07390
C2755       C  0.76545804  0.37768043  0.83615799     0.04430
C2756       C  0.78156386  0.36798297  0.84682265    -0.11720
C2757       C  0.80213644  0.38555594  0.86153232     0.01930
C2758       C  0.80618147  0.41351519  0.86492442    -0.10240
C2759       C  0.78861093  0.42257505  0.85524515     0.04420
C2760       C  0.76772051  0.40398366  0.84132071    -0.09670
H2761       H  0.77748719  0.34655212  0.84334932     0.10020
H2762       H  0.82333327  0.42879254  0.87460236     0.07550
H2763       H  0.75404276  0.41056918  0.83360440     0.07390
C2764       C  0.84605657  0.37600075  0.90364461     0.04430
C2765       C  0.83234536  0.38748622  0.89191944    -0.11720
C2766       C  0.81859952  0.37442124  0.87341526     0.01930
C2767       C  0.81995990  0.34992742  0.86679503    -0.10240
C2768       C  0.83156013  0.33692048  0.87924764     0.04420
C2769       C  0.84396484  0.34988510  0.89785862    -0.09670
H2770       H  0.83284275  0.40670739  0.89743422     0.10020
H2771       H  0.81229021  0.34073566  0.85192990     0.07550
H2772       H  0.85257001  0.33992768  0.90788174     0.07390
C2773       C  0.94470042  0.21777803  0.49881935     0.04430
C2774       C  0.95834309  0.20596150  0.51052617    -0.11720
C2775       C  0.97860890  0.22235053  0.52592012     0.01930
C2776       C  0.98339314  0.25052506  0.52983084    -0.10240
C2777       C  0.96832799  0.26146202  0.51913106     0.04420
C2778       C  0.95012470  0.24563183  0.50327159    -0.09670
H2779       H  0.95264131  0.18395126  0.50746594     0.10020
H2780       H  0.99893757  0.26461576  0.54091550     0.07550
H2781       H  0.94038529  0.25545315  0.49421446     0.07390
C2782       C  0.52885243  0.21647157  0.56482188     0.04430
C2783       C  0.51069324  0.22473750  0.55532715    -0.11720
C2784       C  0.49533944  0.21086376  0.53738779     0.01930
C2785       C  0.49601188  0.18580433  0.53096710    -0.10240
C2786       C  0.51323618  0.17656482  0.54111070     0.04420
C2787       C  0.53172797  0.19405365  0.55655860    -0.09670
H2788       H  0.50811172  0.24136868  0.56261818     0.10020
H2789       H  0.48273873  0.17281025  0.51857993     0.07550
H2790       H  0.54681664  0.18867293  0.56351719     0.07390
C2791       C  0.76694965  0.22163867  0.99380226     0.04430
C2792       C  0.74141769  0.20964119  0.00539971    -0.11720
C2793       C  0.74019284  0.22243704  0.02402302     0.01930
C2794       C  0.76579834  0.24703153  0.03081612    -0.10240
C2795       C  0.79067141  0.26040680  0.01857899     0.04420
C2796       C  0.79046590  0.24803019  0.99980915    -0.09670
H2797       H  0.72305362  0.19013657  0.99983846     0.10020
H2798       H  0.76692155  0.25571737  0.04582024     0.07550
H2799       H  0.80916863  0.25855179  0.98992744     0.07390
C2800       C  0.68486823  0.21455241  0.06476575     0.04430
C2801       C  0.70936447  0.22663467  0.05204526    -0.11720
C2802       C  0.71295602  0.20999271  0.03668549     0.01930
C2803       C  0.69013104  0.18139810  0.03363634    -0.10240
C2804       C  0.66511013  0.16979290  0.04558965     0.04420
C2805       C  0.66306434  0.18601613  0.06141535    -0.09670
H2806       H  0.72518904  0.24915686  0.05414454     0.10020
H2807       H  0.69147166  0.16743769  0.02239204     0.07550
H2808       H  0.64414012  0.17622000  0.07113860     0.07390
C2809       C  0.52409994  0.37813476  0.40117711     0.04430
C2810       C  0.55030246  0.38817757  0.39082986    -0.11720
C2811       C  0.55190001  0.37537677  0.37243995     0.01930
C2812       C  0.52625382  0.35053637  0.36567692    -0.10240
C2813       C  0.00023828  0.33968929  0.37648314     0.04420
C2814       C  0.99912887  0.35419723  0.39374255    -0.09670
H2815       H  0.56926076  0.40553071  0.39784046     0.10020
H2816       H  0.52558819  0.33883427  0.35220023     0.07550
H2817       H  0.97887987  0.34612402  0.40187501     0.07390
C2818       C  0.60894186  0.38344495  0.33333774     0.04430
C2819       C  0.63344679  0.40796415  0.34062855    -0.11720
C2820       C  0.63124890  0.42425062  0.35634460     0.01930
C2821       C  0.60485260  0.41390318  0.36656919    -0.10240
C2822       C  0.58018771  0.38729802  0.36101833     0.04420
C2823       C  0.58270045  0.37298207  0.34373276    -0.09670
H2824       H  0.65405760  0.41569002  0.33306005     0.10020
H2825       H  0.60385638  0.42777668  0.37802285     0.07550
H2826       H  0.56436922  0.35423647  0.33747651     0.07390
C2827       C  0.60419401  0.05237395  0.16668699     0.04430
C2828       C  0.60164024  0.07496018  0.17529160    -0.11720
C2829       C  0.61818096  0.09017398  0.19207442     0.01930
C2830       C  0.63477397  0.08034738  0.20218119    -0.10240
C2831       C  0.63684943  0.05657158  0.19473571     0.04420
C2832       C  0.62227125  0.04374600  0.17624212    -0.09670
H2833       H  0.58783105  0.08192063  0.16824841     0.10020
H2834       H  0.64585806  0.09173788  0.21579488     0.07550
H2835       H  0.62528478  0.02754978  0.16872143     0.07390
C2836       C  0.68620095  0.04922580  0.23428009     0.04430
C2837       C  0.67296679  0.06112662  0.22225333    -0.11720
C2838       C  0.65369315  0.04513329  0.20623674     0.01930
C2839       C  0.65002239  0.01752997  0.20179194    -0.10240
C2840       C  0.66410902  0.00593116  0.21317702     0.04420
C2841       C  0.68094958  0.02144174  0.22986803    -0.09670
H2842       H  0.67831132  0.08299800  0.22552192     0.10020
H2843       H  0.63621071  0.00459623  0.18956468     0.07550
H2844       H  0.69012252  0.01172155  0.23959873     0.07390
C2845       C  0.56170010  0.34181909  0.83132104     0.04430
C2846       C  0.57232309  0.36736345  0.84278480    -0.11720
C2847       C  0.55548020  0.37028281  0.85838895     0.01930
C2848       C  0.52790582  0.34602003  0.86249452    -0.10240
C2849       C  0.51781676  0.31992332  0.85179096     0.04420
C2850       C  0.53445941  0.31844850  0.83594923    -0.09670
H2851       H  0.59403918  0.38439893  0.83954830     0.10020
H2852       H  0.51398615  0.34690975  0.87401641     0.07550
H2853       H  0.52595133  0.29884322  0.82700584     0.07390
C2854       C  0.56447519  0.42550872  0.90001564     0.04430
C2855       C  0.55438500  0.39931024  0.88925508    -0.11720
C2856       C  0.56662388  0.39824006  0.87027022     0.01930
C2857       C  0.59026344  0.42426078  0.86293422    -0.10240
C2858       C  0.60188815  0.44998428  0.87416273     0.04420
C2859       C  0.58804612  0.45065870  0.89205214    -0.09670
H2860       H  0.53758576  0.37982641  0.89620576     0.10020
H2861       H  0.60027275  0.42509850  0.84850493     0.07550
H2862       H  0.59640009  0.47086734  0.90017974     0.07390
C2863       C  0.90007648  0.33996018  0.66514155     0.04430
C2864       C  0.91001983  0.32395626  0.67580545    -0.11720
C2865       C  0.89303523  0.30403532  0.69116463     0.01930
C2866       C  0.86537886  0.30066350  0.69511220    -0.10240
C2867       C  0.85579030  0.31753593  0.68502200     0.04420
C2868       C  0.87358632  0.33744927  0.67028233    -0.09670
H2869       H  0.93110698  0.32759771  0.67172411     0.10020
H2870       H  0.85045145  0.28433179  0.70545897     0.07550
H2871       H  0.86634485  0.35033661  0.66217590     0.07390
C2872       C  0.89919030  0.25503147  0.73139384     0.04430
C2873       C  0.88977680  0.27161434  0.72078250    -0.11720
C2874       C  0.90369080  0.28658364  0.70266043     0.01930
C2875       C  0.92872106  0.28573483  0.69640577    -0.10240
C2876       C  0.93909287  0.27055378  0.70770647     0.04420
C2877       C  0.92312379  0.25381683  0.72422091    -0.09670
H2878       H  0.87232174  0.27346867  0.72741760     0.10020
H2879       H  0.94119586  0.29745557  0.68330693     0.07550
H2880       H  0.93060853  0.24114826  0.73236004     0.07390
C2881       C  0.73058287  0.17310184  0.50059103     0.04430
C2882       C  0.70590924  0.14845158  0.50744755    -0.11720
C2883       C  0.69331851  0.14838718  0.52607340     0.01930
C2884       C  0.70611578  0.17345096  0.53812745    -0.10240
C2885       C  0.73044271  0.19932457  0.53113452     0.04420
C2886       C  0.74241293  0.19851112  0.51210260    -0.09670
H2887       H  0.69623777  0.12927391  0.49799825     0.10020
H2888       H  0.69667399  0.17222596  0.55286221     0.07550
H2889       H  0.76046239  0.21749229  0.50558471     0.07390
C2890       C  0.73778365  0.25582026  0.57033121     0.04430
C2891       C  0.76482295  0.27919468  0.56532112    -0.11720
C2892       C  0.78107708  0.27698297  0.54951615     0.01930
C2893       C  0.77033129  0.25091785  0.53882072    -0.10240
C2894       C  0.74264520  0.22702132  0.54319353     0.04420
C2895       C  0.72655442  0.23019513  0.55907906    -0.09670
H2896       H  0.77340031  0.29912306  0.57390206     0.10020
H2897       H  0.78427091  0.24965592  0.52749518     0.07550
H2898       H  0.70495707  0.21328399  0.56277718     0.07390
C2899       C  0.72368380  0.00762737  0.99916222     0.04430
C2900       C  0.73414174  0.99143376  0.00918873    -0.11720
C2901       C  0.71897188  0.47297473  0.02574263     0.01930
C2902       C  0.69215646  0.47044177  0.03117228    -0.10240
C2903       C  0.68246320  0.98768116  0.02200520     0.04420
C2904       C  0.69871087  0.00680224  0.00654646    -0.09670
H2905       H  0.75380882  0.99314427  0.00351539     0.10020
H2906       H  0.67813622  0.45503094  0.04235972     0.07550
H2907       H  0.69090082  0.01992246  0.99948369     0.07390
C2908       C  0.73013776  0.42892106  0.06736300     0.04430
C2909       C  0.71876195  0.44326589  0.05620621    -0.11720
C2910       C  0.73088280  0.45669526  0.03731216     0.01930
C2911       C  0.75525660  0.45534061  0.03022951    -0.10240
C2912       C  0.76786290  0.44255249  0.04195260     0.04420
C2913       C  0.75488879  0.42914787  0.06033530    -0.09670
H2914       H  0.70092812  0.44426370  0.06298773     0.10020
H2915       H  0.76497437  0.46408400  0.01567695     0.07550
H2916       H  0.76430573  0.41905961  0.06943721     0.07390
C2917       C  0.56617532  0.09180582  0.39922018     0.04430
C2918       C  0.55533804  0.10656007  0.38786302    -0.11720
C2919       C  0.56740392  0.11904896  0.36874367     0.01930
C2920       C  0.59087130  0.11622384  0.36150692    -0.10240
C2921       C  0.60297629  0.10304141  0.37339842     0.04420
C2922       C  0.59001018  0.09043892  0.39194193    -0.09670
H2923       H  0.53815178  0.10890368  0.39452542     0.10020
H2924       H  0.60027838  0.12442701  0.34674800     0.07550
H2925       H  0.59905399  0.08012082  0.40117646     0.07390
C2926       C  0.56415200  0.17295245  0.33164039     0.04430
C2927       C  0.57385716  0.15642622  0.34195648    -0.11720
C2928       C  0.55657116  0.13610892  0.35704812     0.01930
C2929       C  0.52887176  0.13257361  0.36096426    -0.10240
C2930       C  0.51957594  0.14992638  0.35120132     0.04420
C2931       C  0.53776364  0.17046756  0.33697159    -0.09670
H2932       H  0.59507554  0.16008666  0.33813169     0.10020
H2933       H  0.51395624  0.11590601  0.37115590     0.07550
H2934       H  0.53084903  0.18393747  0.32930832     0.07390
C2935       C  0.89828083  0.09162662  0.23486764     0.04430
C2936       C  0.88711529  0.06581484  0.22394831    -0.11720
C2937       C  0.89869201  0.06485852  0.20477941     0.01930
C2938       C  0.92218357  0.09095634  0.19725154    -0.10240
C2939       C  0.93496183  0.11638968  0.20899348     0.04420
C2940       C  0.92255400  0.11641299  0.22773642    -0.09670
H2941       H  0.86945138  0.04685136  0.23079795     0.10020
H2942       H  0.93091256  0.09206512  0.18228097     0.07550
H2943       H  0.93193553  0.13565863  0.23709923     0.07390
C2944       C  0.89143962  0.50754304  0.16611617     0.04430
C2945       C  0.90239642  0.03374192  0.17674935    -0.11720
C2946       C  0.88681984  0.03683299  0.19310356     0.01930
C2947       C  0.85970669  0.51258146  0.19818785    -0.10240
C2948       C  0.84983043  0.48591589  0.18852661     0.04420
C2949       C  0.86595394  0.48348399  0.17283144    -0.09670
H2950       H  0.92281585  0.05147842  0.17177626     0.10020
H2951       H  0.84574880  0.51385401  0.20948960     0.07550
H2952       H  0.85781513  0.46292768  0.16513024     0.07390
C2953       C  0.77600143  0.34227134  0.32991600     0.04430
C2954       C  0.78874461  0.36721744  0.34223582    -0.11720
C2955       C  0.80681089  0.36994599  0.35904479     0.01930
C2956       C  0.80899029  0.34535178  0.36414905    -0.10240
C2957       C  0.79606172  0.32021016  0.35222363     0.04420
C2958       C  0.78127901  0.31977777  0.33454986    -0.09670
H2959       H  0.78365342  0.38383436  0.33871949     0.10020
H2960       H  0.82034516  0.34497581  0.37750659     0.07550
H2961       H  0.77316526  0.30131272  0.32448730     0.07390
C2962       C  0.85497495  0.42598123  0.39974826     0.04430
C2963       C  0.83879918  0.39977397  0.38918123    -0.11720
C2964       C  0.82324277  0.39794666  0.37108956     0.01930
C2965       C  0.82417228  0.42362002  0.36442274    -0.10240
C2966       C  0.83916133  0.44957099  0.37537011     0.04420
C2967       C  0.85503307  0.45063875  0.39257165    -0.09670
H2968       H  0.83833742  0.38113131  0.39575449     0.10020
H2969       H  0.81355788  0.42420222  0.35064976     0.07550
H2970       H  0.86697144  0.47077605  0.40080095     0.07390
C2971       C  0.68260161  0.08523426  0.73520366     0.04430
C2972       C  0.67101448  0.06116932  0.72238141    -0.11720
C2973       C  0.65434215  0.05951389  0.70519490     0.01930
C2974       C  0.65145706  0.08389328  0.70061596    -0.10240
C2975       C  0.66466440  0.10884026  0.71281600     0.04420
C2976       C  0.67924869  0.10875547  0.73039753    -0.09670
H2977       H  0.67529907  0.04400879  0.72611280     0.10020
H2978       H  0.63926191  0.08403226  0.68760341     0.07550
H2979       H  0.68850941  0.12739946  0.74036609     0.07390
C2980       C  0.61844963  0.50833893  0.66011348     0.04430
C2981       C  0.63122693  0.03329307  0.67215148    -0.11720
C2982       C  0.64066151  0.03276793  0.69213297     0.01930
C2983       C  0.63676341  0.50616928  0.69953451    -0.10240
C2984       C  0.62635020  0.48178241  0.68691260     0.04420
C2985       C  0.61726061  0.48318350  0.66720942    -0.09670
H2986       H  0.63342937  0.05277586  0.66556719     0.10020
H2987       H  0.64148233  0.50387558  0.71515985     0.07550
H2988       H  0.60864578  0.46443142  0.65739703     0.07390
C2989       C  0.77662004  0.00549507  0.49936349     0.04430
C2990       C  0.75126950  0.49210442  0.51114801    -0.11720
C2991       C  0.74731079  0.47204855  0.52672646     0.01930
C2992       C  0.77048070  0.46701505  0.53066603    -0.10240
C2993       C  0.79637414  0.48148694  0.51964581     0.04420
C2994       C  0.79909748  0.00013443  0.50383779    -0.09670
H2995       H  0.73509435  0.49799970  0.50799697     0.10020
H2996       H  0.76874913  0.45154196  0.54194298     0.07550
H2997       H  0.81878879  0.01032430  0.49488921     0.07390
C2998       C  0.69078380  0.42589641  0.56741840     0.04430
C2999       C  0.71727397  0.44180552  0.55703168    -0.11720
C3000       C  0.71918841  0.45616991  0.53842426     0.01930
C3001       C  0.69382571  0.45542094  0.53128080    -0.10240
C3002       C  0.66785265  0.44095247  0.54212347     0.04420
C3003       C  0.66612474  0.42527224  0.55952240    -0.09670
H3004       H  0.73630709  0.44345894  0.56402108     0.10020
H3005       H  0.69360090  0.46604111  0.51738622     0.07550
H3006       H  0.64556214  0.41339018  0.56731972     0.07390
C3007       C  0.85284563  0.26226036  0.23647071     0.04430
C3008       C  0.87799804  0.27559521  0.22456628    -0.11720
C3009       C  0.87882954  0.28920831  0.20586207     0.01930
C3010       C  0.85306683  0.28836881  0.19953321    -0.10240
C3011       C  0.82837859  0.27652385  0.21191327     0.04420
C3012       C  0.82848605  0.26346781  0.23031833    -0.09670
H3013       H  0.89677895  0.27566931  0.23060663     0.10020
H3014       H  0.85141444  0.29679280  0.18504425     0.07550
H3015       H  0.80950309  0.25416559  0.23998212     0.07390
C3016       C  0.93519684  0.34061490  0.16705611     0.04430
C3017       C  0.90884276  0.32345647  0.17711210    -0.11720
C3018       C  0.90660348  0.30554640  0.19380031     0.01930
C3019       C  0.93150064  0.30377615  0.19884314    -0.10240
C3020       C  0.95808301  0.32142631  0.18919590     0.04420
C3021       C  0.95996020  0.34108963  0.17443208    -0.09670
H3022       H  0.89039329  0.32412481  0.17134739     0.10020
H3023       H  0.93058083  0.28820117  0.20967733     0.07550
H3024       H  0.98077420  0.35558176  0.16762106     0.07390
C3025       C  0.93946934  0.17391449  0.99901201     0.04430
C3026       C  0.95758825  0.20101344  0.00793572    -0.11720
C3027       C  0.97227786  0.20353665  0.02642917     0.01930
C3028       C  0.97064948  0.17820329  0.03451230    -0.10240
C3029       C  0.95424415  0.15141125  0.02494712     0.04420
C3030       C  0.93727521  0.14920271  0.00818322    -0.09670
H3031       H  0.96056133  0.22000645  0.00004476     0.10020
H3032       H  0.98181873  0.17855066  0.04826026     0.07550
H3033       H  0.92336619  0.12808958  0.00166993     0.07390
C3034       C  0.52042202  0.26138566  0.06511781     0.04430
C3035       C  0.50838552  0.23637178  0.05315338    -0.11720
C3036       C  0.98866958  0.23214119  0.03730292     0.01930
C3037       C  0.98329617  0.25501721  0.03299064    -0.10240
C3038       C  0.49677243  0.28073686  0.04422303     0.04420
C3039       C  0.51488410  0.28356692  0.06041048    -0.09670
H3040       H  0.51406530  0.22021752  0.05694531     0.10020
H3041       H  0.96779678  0.25289717  0.02159927     0.07550
H3042       H  0.52441591  0.30300775  0.06960643     0.07390
C3043       C  0.62797460  0.15638002  0.85513461     0.04430
C3044       C  0.60113489  0.13826154  0.86442229    -0.11720
C3045       C  0.57704384  0.14216330  0.86114684     0.01930
C3046       C  0.58049182  0.16366245  0.84697005    -0.10240
C3047       C  0.60685651  0.18078658  0.83695574     0.04420
C3048       C  0.63073115  0.17820174  0.84205151    -0.09670
H3049       H  0.59920448  0.12051788  0.87343286     0.10020
H3050       H  0.56305479  0.16738986  0.84308273     0.07550
H3051       H  0.65122260  0.19206546  0.83461234     0.07390
C3052       C  0.02013187  0.08727382  0.89796493     0.04430
C3053       C  0.99506254  0.08615662  0.89077899    -0.11720
C3054       C  0.99628470  0.10497272  0.87553618     0.01930
C3055       C  0.02264389  0.12246887  0.86550482    -0.10240
C3056       C  0.54844286  0.12312113  0.87168802     0.04420
C3057       C  0.54671392  0.10600838  0.88870534    -0.09670
H3058       H  0.97464744  0.07200969  0.89823054     0.10020
H3059       H  0.02258032  0.13602753  0.85343575     0.07550
H3060       H  0.56578513  0.10720607  0.89527309     0.07390
O3061       O  0.81178586  0.07957649  0.81356049    -0.85190
O3062       O  0.89052875  0.21427855  0.87839092    -0.85350
O3063       O  0.86451212  0.17984223  0.81304766    -0.87020
O3064       O  0.89451301  0.13381488  0.85156480    -0.85780
O3065       O  0.87609893  0.10608507  0.88029984    -0.85370
O3066       O  0.82489828  0.18585301  0.81184932    -0.86740
O3067       O  0.90267024  0.19567896  0.85107005    -0.85220
O3068       O  0.85698620  0.11995235  0.81275221    -0.84800
Zr3069     Zr  0.86041031  0.14954651  0.84201869     2.84310
O3070       O  0.85986554  0.14952059  0.87770732    -1.06780
O3071       O  0.81338557  0.13122846  0.82961449    -1.07510
C3072       C  0.83732203  0.09525104  0.80582666     1.07920
C3073       C  0.90808978  0.21559634  0.86432737     1.07860
C3074       C  0.84937288  0.19004891  0.80504919     1.10850
C3075       C  0.89558170  0.11837081  0.86629853     1.08630
H3076       H  0.85367960  0.19810890  0.84824846     0.34180
O3077       O  0.84189754  0.17863031  0.85323897    -1.27730
H3078       H  0.83888757  0.09028358  0.84927494     0.33860
O3079       O  0.83126754  0.10225678  0.85396168    -1.29410
O3080       O  0.81398364  0.18306508  0.91699953    -0.85180
O3081       O  0.73406098  0.04992203  0.85090644    -0.86680
O3082       O  0.80865354  0.20945781  0.85105502    -0.85260
O3083       O  0.86020154  0.12901483  0.91828428    -0.85310
O3084       O  0.81480389  0.05210555  0.88056953    -0.85020
O3085       O  0.76345763  0.13218423  0.81273669    -0.84820
O3086       O  0.73053201  0.12886960  0.87818514    -0.85200
O3087       O  0.75967900  0.08300009  0.91709305    -0.84660
O3088       O  0.74890485  0.15676480  0.84960081    -0.85720
O3089       O  0.79884182  0.07626708  0.91842315    -0.84880
O3090       O  0.83675248  0.22017531  0.87969957    -0.85280
O3091       O  0.75885784  0.08707038  0.81234105    -0.85000
O3092       O  0.78685341  0.04206088  0.85200816    -0.84650
O3093       O  0.86775247  0.17513832  0.91815684    -0.85060
O3094       O  0.76740130  0.14497145  0.91617625    -0.85350
O3095       O  0.72200562  0.06854316  0.87823548    -0.86690
Zr3096     Zr  0.84135874  0.17863709  0.88887565     2.83100
Zr3097     Zr  0.78430598  0.08416035  0.84178919     2.83500
Zr3098     Zr  0.79476516  0.16015912  0.84095406     2.84090
Zr3099     Zr  0.82997812  0.10220743  0.88953999     2.83360
Zr3100     Zr  0.76475432  0.11362846  0.88826750     2.84220
O3101       O  0.78286739  0.08400982  0.87733381    -1.07260
O3102       O  0.79434371  0.16073466  0.87650632    -1.06770
C3103       C  0.78777851  0.16875488  0.92380089     1.07890
C3104       C  0.71610948  0.04914584  0.86445140     1.10510
C3105       C  0.82386982  0.22646721  0.86568219     1.08070
C3106       C  0.87127318  0.15476130  0.92570430     1.08430
C3107       C  0.79939324  0.03526742  0.86592473     1.08010
C3108       C  0.75376292  0.10656258  0.80534087     1.07560
C3109       C  0.72930982  0.14417392  0.86342436     1.07990
C3110       C  0.77441920  0.07242742  0.92516204     1.07500
H3111       H  0.74606579  0.10536827  0.84762580     0.34180
O3112       O  0.76547112  0.11303727  0.85275654    -1.28360
H3113       H  0.81136342  0.13166502  0.91550660     0.34200
O3114       O  0.81171035  0.13151805  0.90081874    -1.29750
O3115       O  0.92781352  0.41613230  0.98096366    -0.85190
O3116       O  0.98193323  0.04906040  0.04754362    -0.85350
O3117       O  0.89846312  0.47075141  0.01814410    -0.87020
O3118       O  0.97500570  0.01463937  0.98004198    -0.85780
O3119       O  0.52108389  0.02154732  0.98089659    -0.85370
O3120       O  0.88618798  0.44074822  0.04588421    -0.86740
O3121       O  0.95220169  0.03160914  0.01960186    -0.85220
O3122       O  0.92017114  0.45476723  0.98132420    -0.84800
Zr3123     Zr  0.94837124  0.48569593  0.00949802     2.84310
O3124       O  0.99579144  0.01417434  0.02142608    -1.06780
O3125       O  0.92938490  0.43811637  0.02101084    -1.07510
C3126       C  0.91670858  0.43091898  0.97384336     1.07920
C3127       C  0.96576966  0.05066775  0.03362203     1.07860
C3128       C  0.88045226  0.45411174  0.03182492     1.10850
C3129       C  0.00085068  0.02482159  0.97290346     1.08630
H3130       H  0.93603322  0.49315852  0.04996805     0.34180
O3131       O  0.94772737  0.48530360  0.04510045    -1.27730
H3132       H  0.97706386  0.46661225  0.98289132     0.33860
O3133       O  0.97688312  0.46669699  0.99758193    -1.29410
O3134       O  0.52462874  0.01648250  0.08617959    -0.85180
O3135       O  0.97226453  0.38417170  0.01870518    -0.86680
O3136       O  0.92469327  0.46453082  0.08515625    -0.85260
O3137       O  0.55933144  0.04389845  0.01939539    -0.85310
O3138       O  0.52908658  0.46785210  0.98162842    -0.85020
O3139       O  0.89423977  0.38796001  0.04704809    -0.84820
O3140       O  0.97724728  0.41789072  0.08619572    -0.85200
O3141       O  0.55331960  0.46028144  0.04734004    -0.84660
O3142       O  0.93145909  0.41142534  0.08618621    -0.85720
O3143       O  0.56565643  0.49047951  0.01961060    -0.84880
O3144       O  0.96530638  0.00951606  0.08624860    -0.85280
O3145       O  0.91234547  0.37721800  0.01882249    -0.85000
O3146       O  0.98922836  0.42249719  0.98079507    -0.84650
O3147       O  0.54277698  0.05406969  0.04875156    -0.85060
O3148       O  0.53121763  0.47732638  0.08652817    -0.85350
O3149       O  0.49796320  0.39986029  0.04855010    -0.86690
Zr3150     Zr  0.99520328  0.01327483  0.05705887     2.83100
Zr3151     Zr  0.95822558  0.41943916  0.00942332     2.83500
Zr3152     Zr  0.92850428  0.43769780  0.05659649     2.84090
Zr3153     Zr  0.52400274  0.49472702  0.00985508     2.83360
Zr3154     Zr  0.50434913  0.44714985  0.05731739     2.84220
O3155       O  0.50531667  0.44742793  0.02168230    -1.07260
O3156       O  0.97571430  0.46590684  0.06886302    -1.06770
C3157       C  0.53533390  0.00160549  0.09379502     1.07890
C3158       C  0.98583689  0.38139118  0.03397423     1.10510
C3159       C  0.94052224  0.48979302  0.09307978     1.08070
C3160       C  0.56178110  0.06023853  0.03457524     1.08430
C3161       C  0.51408293  0.44225943  0.97395104     1.08010
C3162       C  0.89305834  0.37072273  0.03283035     1.07560
C3163       C  0.95157922  0.40741186  0.09364618     1.07990
C3164       C  0.57094439  0.47645570  0.03332571     1.07500
H3165       H  0.94914229  0.39936132  0.04998998     0.34180
O3166       O  0.95719244  0.41890540  0.04506234    -1.28360
H3167       H  0.54323382  0.00583601  0.05054868     0.34200
O3168       O  0.52374791  0.49445200  0.04547350    -1.29750
O3169       O  0.86383027  0.18388855  0.41947961    -0.85190
O3170       O  0.81067749  0.05158284  0.35236354    -0.85350
O3171       O  0.81889534  0.08601123  0.42000725    -0.87020
O3172       O  0.89289704  0.12859165  0.37933301    -0.85780
O3173       O  0.90230846  0.15630289  0.35062631    -0.85370
O3174       O  0.77248129  0.07808991  0.42029422    -0.86740
O3175       O  0.84081028  0.06954531  0.38004959    -0.85220
O3176       O  0.87154700  0.14537823  0.41883387    -0.84800
Zr3177     Zr  0.84397319  0.11495539  0.39023993     2.84310
O3178       O  0.84305882  0.11498277  0.35470744    -1.06780
O3179       O  0.81490954  0.13295514  0.40244796    -1.07510
C3180       C  0.87487072  0.16901605  0.42664332     1.07920
C3181       C  0.82733197  0.05038472  0.36610057     1.07860
C3182       C  0.79334493  0.07528011  0.42777955     1.10850
C3183       C  0.90899515  0.14306965  0.36412193     1.08630
H3184       H  0.78875744  0.06608109  0.38382168     0.34180
O3185       O  0.79624416  0.08559581  0.37896478    -1.27730
H3186       H  0.88193892  0.17416700  0.38329422     0.33860
O3187       O  0.86227539  0.16237406  0.37863591    -1.29410
O3188       O  0.76593216  0.08326455  0.31408604    -0.85180
O3189       O  0.81850266  0.21544340  0.38156566    -0.86680
O3190       O  0.73273822  0.05390574  0.38197686    -0.85260
O3191       O  0.86482796  0.13577198  0.31411369    -0.85310
O3192       O  0.89638262  0.21120595  0.35258435    -0.85020
O3193       O  0.76264513  0.13024115  0.41957733    -0.84820
O3194       O  0.73484843  0.13452072  0.35302253    -0.85200
O3195       O  0.81145695  0.18414358  0.31621845    -0.84660
O3196       O  0.72364151  0.10474742  0.38080348    -0.85720
O3197       O  0.85674721  0.18924177  0.31468928    -0.84880
O3198       O  0.74938243  0.04476901  0.35230528    -0.85280
O3199       O  0.80307776  0.17549526  0.42040624    -0.85000
O3200       O  0.87873699  0.22298319  0.38065965    -0.84650
O3201       O  0.82613538  0.08944871  0.31484529    -0.85060
O3202       O  0.75857076  0.12203073  0.31471148    -0.85350
O3203       O  0.78846322  0.19716197  0.35392139    -0.86690
Zr3204     Zr  0.79562012  0.08626769  0.34330744     2.83100
Zr3205     Zr  0.83314670  0.18038856  0.39091083     2.83500
Zr3206     Zr  0.76725123  0.10374911  0.39115729     2.84090
Zr3207     Zr  0.86099507  0.16210986  0.34301131     2.83360
Zr3208     Zr  0.78492938  0.15154383  0.34405696     2.84220
O3209       O  0.83243568  0.18053454  0.35536699    -1.07260
O3210       O  0.76663317  0.10414993  0.35559138    -1.06770
C3211       C  0.75531761  0.09846833  0.30678574     1.07890
C3212       C  0.80220066  0.21674821  0.36755940     1.10510
C3213       C  0.73062761  0.03774915  0.36672517     1.08070
C3214       C  0.84990964  0.10976977  0.30722745     1.08430
C3215       C  0.89791247  0.22872749  0.36664617     1.08010
C3216       C  0.77841169  0.15558803  0.42734840     1.07560
C3217       C  0.71718824  0.11747231  0.36668333     1.07990
C3218       C  0.83686229  0.19435236  0.30834290     1.07500
H3219       H  0.77337535  0.15884013  0.38469194     0.34180
O3220       O  0.78531472  0.15134859  0.37967011    -1.28360
H3221       H  0.81356764  0.13367929  0.31668293     0.34200
O3222       O  0.81364926  0.13344701  0.33137395    -1.29750
O3223       O  0.73072609  0.37598308  0.68532519    -0.85190
O3224       O  0.59886949  0.29599211  0.75336946    -0.85350
O3225       O  0.65108612  0.37885962  0.71431828    -0.87020
O3226       O  0.69475582  0.34711151  0.75366486    -0.85780
O3227       O  0.70379899  0.30935307  0.75289345    -0.85370
O3228       O  0.62211192  0.36081082  0.68617759    -0.86740
O3229       O  0.63737161  0.34232829  0.75247907    -0.85220
O3230       O  0.71282211  0.38776765  0.71320770    -0.84800
Zr3231     Zr  0.66747491  0.34528315  0.72351429     2.84310
O3232       O  0.64931683  0.29814073  0.73520207    -1.06780
O3233       O  0.66731073  0.34513072  0.68793923    -1.07510
C3234       C  0.73192552  0.39374483  0.69911724     1.07920
C3235       C  0.61384935  0.32194573  0.76047136     1.07860
C3236       C  0.63468477  0.37988088  0.70029603     1.10850
C3237       C  0.70539291  0.33203964  0.76105623     1.08630
H3238       H  0.60805594  0.32410428  0.71692569     0.34180
O3239       O  0.61997144  0.31653924  0.71199923    -1.27730
H3240       H  0.71633988  0.33880680  0.71677655     0.33860
O3241       O  0.69676769  0.32694063  0.71195481    -1.29410
O3242       O  0.56560968  0.22078692  0.71378358    -0.85180
O3243       O  0.69897115  0.29959686  0.64730284    -0.86680
O3244       O  0.56957486  0.29920542  0.68484167    -0.85260
O3245       O  0.65241069  0.25251113  0.75432434    -0.85310
O3246       O  0.72742891  0.29312107  0.71323659    -0.85020
O3247       O  0.64710896  0.34788214  0.64830185    -0.84820
O3248       O  0.59999663  0.24643464  0.64799633    -0.85200
O3249       O  0.64372010  0.21478895  0.68707679    -0.84660
O3250       O  0.59443934  0.28630461  0.64717742    -0.85720
O3251       O  0.67318330  0.23272449  0.71506855    -0.84880
O3252       O  0.55999527  0.27353133  0.71464031    -0.85280
O3253       O  0.69253668  0.35345046  0.64752526    -0.85000
O3254       O  0.73700552  0.32045881  0.68428491    -0.84650
O3255       O  0.60582457  0.24419258  0.75336119    -0.85060
O3256       O  0.58318565  0.20884145  0.68575683    -0.85350
O3257       O  0.66107390  0.25288024  0.64867373    -0.86690
Zr3258     Zr  0.60184811  0.26948435  0.72401043     2.83100
Zr3259     Zr  0.69582224  0.32626576  0.67626880     2.83500
Zr3260     Zr  0.61996090  0.31592740  0.67638886     2.84090
Zr3261     Zr  0.67809001  0.27941779  0.72381907     2.83360
Zr3262     Zr  0.63011915  0.25012018  0.67693895     2.84220
O3263       O  0.67763445  0.27909143  0.68828193    -1.07260
O3264       O  0.60143016  0.26879614  0.68849082    -1.06770
C3265       C  0.56366922  0.20356723  0.69933770     1.07890
C3266       C  0.68444407  0.27340708  0.64064741     1.10510
C3267       C  0.55303760  0.28481935  0.69987555     1.08070
C3268       C  0.62662353  0.24220116  0.76165318     1.08430
C3269       C  0.74365514  0.30745539  0.69798385     1.08010
C3270       C  0.67272406  0.35835246  0.64067065     1.07560
C3271       C  0.59017264  0.26197706  0.64011999     1.07990
C3272       C  0.65946583  0.21321571  0.70135264     1.07500
H3273       H  0.64858420  0.29719706  0.64985736     0.34180
O3274       O  0.64855074  0.29723444  0.66454849    -1.28360
H3275       H  0.62233120  0.23078568  0.71775795     0.34200
O3276       O  0.63027086  0.25021448  0.71260117    -1.29750
O3277       O  0.64119306  0.24924897  0.14526845    -0.85190
O3278       O  0.72215286  0.38173944  0.21218228    -0.85350
O3279       O  0.69562310  0.34984142  0.14663603    -0.87020
O3280       O  0.72642992  0.30356132  0.18453809    -0.85780
O3281       O  0.70817677  0.27427441  0.21258877    -0.85370
O3282       O  0.65563976  0.35536532  0.14641495    -0.86740
O3283       O  0.73382190  0.36400067  0.18410826    -0.85220
O3284       O  0.68711065  0.28849086  0.14502785    -0.84800
Zr3285     Zr  0.69146880  0.31808945  0.17466136     2.84310
O3286       O  0.69180608  0.31781146  0.21025263    -1.06780
O3287       O  0.64399163  0.29974339  0.16316880    -1.07510
C3288       C  0.66663794  0.26469153  0.13742119     1.07920
C3289       C  0.73945901  0.38329232  0.19792870     1.07860
C3290       C  0.68021307  0.36018580  0.13933111     1.10850
C3291       C  0.72762175  0.28751963  0.19879710     1.08630
H3292       H  0.68471883  0.36658142  0.18188366     0.34180
O3293       O  0.67306678  0.34697232  0.18666783    -1.27730
H3294       H  0.67011172  0.25858357  0.18118530     0.33860
O3295       O  0.66254575  0.27046260  0.18618948    -1.29410
O3296       O  0.64651989  0.35034329  0.25056635    -0.85180
O3297       O  0.56478146  0.21856969  0.18353587    -0.86680
O3298       O  0.63889023  0.37729799  0.18593952    -0.85260
O3299       O  0.69306814  0.29682065  0.25082659    -0.85310
O3300       O  0.64672196  0.22070364  0.21234962    -0.85020
O3301       O  0.59535498  0.30267924  0.14620090    -0.84820
O3302       O  0.56218329  0.29638319  0.21383005    -0.85200
O3303       O  0.59393450  0.25092182  0.25177951    -0.84660
O3304       O  0.57975023  0.32425879  0.18510389    -0.85720
O3305       O  0.63269632  0.24342859  0.25064121    -0.84880
O3306       O  0.66866142  0.38835688  0.21369953    -0.85280
O3307       O  0.59014376  0.25733163  0.14514629    -0.85000
O3308       O  0.61663677  0.20896843  0.18465511    -0.84650
O3309       O  0.70067377  0.34301027  0.25083149    -0.85060
O3310       O  0.60056811  0.31117388  0.25108051    -0.85350
O3311       O  0.55393929  0.23556116  0.21233362    -0.86690
Zr3312     Zr  0.67318548  0.34637790  0.22219918     2.83100
Zr3313     Zr  0.61502555  0.25228388  0.17468818     2.83500
Zr3314     Zr  0.62554784  0.32840967  0.17529664     2.84090
Zr3315     Zr  0.66244755  0.27047632  0.22183224     2.83360
Zr3316     Zr  0.59667273  0.28063423  0.22247693     2.84220
O3317       O  0.61489735  0.25172775  0.21033617    -1.07260
O3318       O  0.62569093  0.32807662  0.21082103    -1.06770
C3319       C  0.62089552  0.33541737  0.25810953     1.07890
C3320       C  0.54739822  0.21703734  0.19778570     1.10510
C3321       C  0.65481985  0.39441187  0.20026812     1.08070
C3322       C  0.70413398  0.32257266  0.25833068     1.08430
C3323       C  0.62993618  0.20300742  0.19860256     1.08010
C3324       C  0.58589061  0.27749596  0.13817968     1.07560
C3325       C  0.56055824  0.31164568  0.19917611     1.07990
C3326       C  0.60928094  0.24023337  0.25871882     1.07500
H3327       H  0.57703915  0.27348659  0.18183132     0.34180
O3328       O  0.59650033  0.28095745  0.18680075    -1.28360
H3329       H  0.64439432  0.29917059  0.24878585     0.34200
O3330       O  0.64416419  0.29915146  0.23409591    -1.29750
O3331       O  0.48643133  0.01581374  0.58541815    -0.85190
O3332       O  0.90612207  0.38248253  0.51905023    -0.85350
O3333       O  0.90118062  0.45951817  0.54679001    -0.87020
O3334       O  0.93511950  0.41785377  0.58596595    -0.85780
O3335       O  0.97332767  0.40949879  0.58445747    -0.85370
O3336       O  0.91801125  0.98791383  0.51811196    -0.86740
O3337       O  0.89702771  0.39889991  0.54889687    -0.85220
O3338       O  0.94011847  0.47732017  0.58488415    -0.84800
Zr3339     Zr  0.93735790  0.44662350  0.55649534     2.84310
O3340       O  0.95556257  0.41786616  0.54394199    -1.06780
O3341       O  0.96535452  0.99410399  0.54474269    -1.07510
C3342       C  0.96045420  0.00105096  0.59259095     1.07920
C3343       C  0.89041137  0.37986560  0.53475747     1.07860
C3344       C  0.89887606  0.47424723  0.53206662     1.10850
C3345       C  0.95016392  0.40680721  0.59273369     1.08630
H3346       H  0.91678100  0.43852825  0.51601305     0.34180
O3347       O  0.93640884  0.44662398  0.52079825    -1.27730
H3348       H  0.98524960  0.46485484  0.58283484     0.33860
O3349       O  0.98472606  0.46474265  0.56814667    -1.29410
O3350       O  0.98221200  0.41485418  0.48005505    -0.85180
O3351       O  0.56245203  0.04664411  0.54750583    -0.86680
O3352       O  0.93497829  0.46830274  0.47997212    -0.85260
O3353       O  0.98888790  0.38722233  0.54471092    -0.85310
O3354       O  0.53700796  0.46350872  0.58223925    -0.85020
O3355       O  0.48073064  0.04413009  0.51814555    -0.84820
O3356       O  0.53542609  0.01621206  0.48027602    -0.85200
O3357       O  0.56679610  0.47021683  0.51774125    -0.84660
O3358       O  0.49475962  0.02052143  0.47985636    -0.85720
O3359       O  0.54891915  0.43999646  0.54543226    -0.84880
O3360       O  0.92878158  0.42265440  0.47901572    -0.85280
O3361       O  0.50961490  0.05407014  0.54623934    -0.85000
O3362       O  0.54141018  0.00846381  0.58371612    -0.84650
O3363       O  0.95972790  0.37629981  0.51652967    -0.85060
O3364       O  0.52792543  0.45450950  0.47956915    -0.85350
O3365       O  0.57420669  0.02945337  0.51923862    -0.86690
Zr3366     Zr  0.95503044  0.41836181  0.50831161     2.83100
Zr3367     Zr  0.51271378  0.01197630  0.55623484     2.83500
Zr3368     Zr  0.96513323  0.99411717  0.50904759     2.84090
Zr3369     Zr  0.50309005  0.43621770  0.55526750     2.83360
Zr3370     Zr  0.53149699  0.48461968  0.50841284     2.84220
O3371       O  0.53143241  0.48372970  0.54388286    -1.07260
O3372       O  0.98393249  0.46586494  0.49665980    -1.06770
C3373       C  0.50793142  0.42995777  0.47268275     1.07890
C3374       C  0.58020473  0.04813743  0.53360964     1.10510
C3375       C  0.92453576  0.44290422  0.47206238     1.08070
C3376       C  0.97343325  0.37037520  0.53015353     1.08430
C3377       C  0.54742913  0.48908797  0.58978182     1.08010
C3378       C  0.49701468  0.06105979  0.53242885     1.07560
C3379       C  0.51949527  0.02584856  0.47277423     1.07990
C3380       C  0.56822926  0.45388586  0.53165068     1.07500
H3381       H  0.52455866  0.03246402  0.51588775     0.34180
O3382       O  0.51269494  0.01287273  0.52064823    -1.28360
H3383       H  0.51056868  0.42542830  0.51464005     0.34200
O3384       O  0.50269958  0.43698424  0.51973923    -1.29750
C3385       C  0.99248806  0.02606380  0.93591757     0.24900
C3386       C  0.00742697  0.04057427  0.95356850    -0.23210
C3387       C  0.52843779  0.06995085  0.95254258     0.19810
C3388       C  0.53366941  0.08499470  0.93414889     0.24840
C3389       C  0.01817944  0.07066077  0.91651610    -0.23150
C3390       C  0.99795487  0.04093137  0.91749103     0.19740
F3391       F  0.98310693  0.02644377  0.90062911    -0.13110
F3392       F  0.97256908  0.49745726  0.93657615    -0.15470
F3393       F  0.55256800  0.11386428  0.93384630    -0.15480
F3394       F  0.54279647  0.08433069  0.96956287    -0.13110
C3395       C  0.93647380  0.11383732  0.85057420     0.24900
C3396       C  0.92145698  0.11501018  0.86785462    -0.23210
C3397       C  0.93165419  0.11337879  0.88717721     0.19810
C3398       C  0.95614712  0.11090717  0.88943629     0.24840
C3399       C  0.97074465  0.10869473  0.87232724    -0.23150
C3400       C  0.96077154  0.11038056  0.85278834     0.19740
F3401       F  0.97403370  0.10800988  0.83588924    -0.13110
F3402       F  0.92718967  0.11517778  0.83159487    -0.15470
F3403       F  0.96600963  0.11148710  0.90858710    -0.15480
F3404       F  0.91835962  0.11506528  0.90414670    -0.13110
C3405       C  0.59158226  0.18434974  0.80177192     0.24900
C3406       C  0.60895087  0.19814228  0.81884158    -0.23210
C3407       C  0.63142553  0.22697463  0.81713979     0.19810
C3408       C  0.63718204  0.24135852  0.79846064     0.24840
C3409       C  0.62036060  0.22720175  0.78131252    -0.23150
C3410       C  0.59713387  0.19887349  0.78317800     0.19740
F3411       F  0.58082230  0.18476967  0.76670320    -0.13110
F3412       F  0.57052291  0.15616477  0.80273360    -0.15470
F3413       F  0.65912331  0.26911847  0.79709292    -0.15480
F3414       F  0.64823454  0.24088130  0.83346526    -0.13110
C3415       C  0.66908403  0.15255492  0.84037449     0.24900
C3416       C  0.65289948  0.15156436  0.85757277    -0.23210
C3417       C  0.66162539  0.14734682  0.87686396     0.19810
C3418       C  0.68624976  0.14457095  0.87887025     0.24840
C3419       C  0.70309189  0.14686686  0.86169214    -0.23150
C3420       C  0.69422877  0.15110163  0.84246370     0.19740
F3421       F  0.70966190  0.15349825  0.82544757    -0.13110
F3422       F  0.66041187  0.15463534  0.82132716    -0.15470
F3423       F  0.69407075  0.14058222  0.89770291    -0.15480
F3424       F  0.64691284  0.14684295  0.89384647    -0.13110
C3425       C  0.57997469  0.26993712  0.10062468     0.24900
C3426       C  0.56859135  0.27136613  0.11957239    -0.23210
C3427       C  0.54101710  0.26835158  0.12055685     0.19810
C3428       C  0.52529185  0.26478204  0.10277862     0.24840
C3429       C  0.53670865  0.26357222  0.08378010    -0.23150
C3430       C  0.56393758  0.26567157  0.08280861     0.19740
F3431       F  0.57540822  0.26478267  0.06457757    -0.13110
F3432       F  0.60708499  0.27400487  0.09931279    -0.15470
F3433       F  0.49885457  0.26249187  0.10405889    -0.15480
F3434       F  0.52927323  0.26867816  0.13877294    -0.13110
C3435       C  0.97749850  0.31230726  0.05519538     0.24900
C3436       C  0.49086477  0.30441044  0.04014837    -0.23210
C3437       C  0.50084807  0.32087396  0.02221475     0.19810
C3438       C  0.49872069  0.34580320  0.01985506     0.24840
C3439       C  0.98660923  0.35437780  0.03542175    -0.23150
C3440       C  0.97515445  0.33694422  0.05273608     0.19740
F3441       F  0.96120632  0.34356820  0.06709383    -0.13110
F3442       F  0.96701914  0.29626072  0.07239103    -0.15470
F3443       F  0.50951038  0.36217696  0.00283396    -0.15480
F3444       F  0.51388136  0.31359101  0.00751097    -0.13110
C3445       C  0.98754936  0.10403690  0.03126007     0.24900
C3446       C  0.96293212  0.07666822  0.03359593    -0.23210
C3447       C  0.93568522  0.07436240  0.03546464     0.19810
C3448       C  0.93288165  0.09896057  0.03395362     0.24840
C3449       C  0.95736683  0.12625325  0.03057260    -0.23150
C3450       C  0.98480254  0.12863560  0.02966815     0.19740
F3451       F  0.00875471  0.15452227  0.02583964    -0.13110
F3452       F  0.01409709  0.10672841  0.02938080    -0.15470
F3453       F  0.90622514  0.09610471  0.03539747    -0.15480
F3454       F  0.91184977  0.04829791  0.03885534    -0.13110
C3455       C  0.90978474  0.18720073  0.97594019     0.24900
C3456       C  0.92359179  0.17101453  0.97966690    -0.23210
C3457       C  0.92092776  0.15064225  0.96502514     0.19810
C3458       C  0.90304117  0.14474876  0.94823028     0.24840
C3459       C  0.88958299  0.16106597  0.94417990    -0.23150
C3460       C  0.89365875  0.18284105  0.95808501     0.19740
F3461       F  0.88100652  0.19906139  0.95494131    -0.13110
F3462       F  0.91089713  0.20647582  0.98985183    -0.15470
F3463       F  0.89875551  0.12258613  0.93606815    -0.15480
F3464       F  0.93576476  0.13625224  0.96679035    -0.13110
C3465       C  0.49818845  0.31528051  0.17559280     0.24900
C3466       C  0.98351850  0.31766390  0.19257442    -0.23210
C3467       C  0.49396229  0.31728597  0.21218857     0.19810
C3468       C  0.51892951  0.31504318  0.21461173     0.24840
C3469       C  0.53411417  0.31388049  0.19743346    -0.23150
C3470       C  0.52347280  0.31425118  0.17795845     0.19740
F3471       F  0.53730740  0.31311801  0.16098311    -0.13110
F3472       F  0.98776815  0.31344006  0.15649464    -0.15470
F3473       F  0.52881434  0.31510373  0.23364909    -0.15480
F3474       F  0.98054863  0.31991557  0.22891185    -0.13110
C3475       C  0.92253190  0.37208672  0.14522836     0.24900
C3476       C  0.93708689  0.35638528  0.14783457    -0.23210
C3477       C  0.95438178  0.35609750  0.13176574     0.19810
C3478       C  0.95920905  0.37295157  0.11453878     0.24840
C3479       C  0.94517808  0.38902122  0.11196832    -0.23150
C3480       C  0.92613595  0.38782700  0.12725752     0.19740
F3481       F  0.91216106  0.40302657  0.12530150    -0.13110
F3482       F  0.90572803  0.37319320  0.16027901    -0.15470
F3483       F  0.47790688  0.37349560  0.10034760    -0.15480
F3484       F  0.96665529  0.33921982  0.13252022    -0.13110
C3485       C  0.85731068  0.22373153  0.25494584     0.24900
C3486       C  0.85161503  0.24671058  0.25541740    -0.23210
C3487       C  0.84256096  0.25327235  0.27374395     0.19810
C3488       C  0.83829904  0.23651534  0.29110922     0.24840
C3489       C  0.84342543  0.21321411  0.29049786    -0.23150
C3490       C  0.85343274  0.20722326  0.27242340     0.19740
F3491       F  0.85790887  0.18440983  0.27140832    -0.13110
F3492       F  0.86511334  0.21630879  0.23729307    -0.15470
F3493       F  0.82921982  0.24305803  0.30856840    -0.15480
F3494       F  0.83765080  0.27581522  0.27475978    -0.13110
C3495       C  0.75045219  0.25756919  0.20587023     0.24900
C3496       C  0.75334369  0.28409706  0.19980109    -0.23210
C3497       C  0.78111723  0.30767025  0.19618797     0.19810
C3498       C  0.80559008  0.30511733  0.19964213     0.24840
C3499       C  0.80263736  0.27863076  0.20612115    -0.23150
C3500       C  0.77474736  0.25467154  0.20853425     0.19740
F3501       F  0.77095189  0.22842111  0.21376292    -0.13110
F3502       F  0.72403249  0.23442034  0.20957411    -0.15470
F3503       F  0.83212454  0.32900383  0.19780440    -0.15480
F3504       F  0.78467556  0.33370024  0.19062087    -0.13110
C3505       C  0.70159093  0.39336484  0.58910160     0.24900
C3506       C  0.68860911  0.41055764  0.58689441    -0.23210
C3507       C  0.67225222  0.41197833  0.60322664     0.19810
C3508       C  0.66741174  0.39525158  0.62068229     0.24840
C3509       C  0.67959238  0.37737726  0.62262669    -0.23150
C3510       C  0.69752670  0.37734981  0.60693680     0.19740
F3511       F  0.71024615  0.36094632  0.60847005    -0.13110
F3512       F  0.71717405  0.39098940  0.57367626    -0.15470
F3513       F  0.65105150  0.39690052  0.63586523    -0.15480
F3514       F  0.66100226  0.42978090  0.60241206    -0.13110
C3515       C  0.61958731  0.47348876  0.54145375     0.24900
C3516       C  0.59446101  0.45148253  0.53233819    -0.23210
C3517       C  0.59413650  0.42656559  0.52521676     0.19810
C3518       C  0.61842852  0.42335567  0.52767321     0.24840
C3519       C  0.64339327  0.44524935  0.53705567    -0.23150
C3520       C  0.64394462  0.47046470  0.54370704     0.19740
F3521       F  0.66765720  0.49152566  0.55329563    -0.13110
F3522       F  0.62002700  0.49727742  0.54905170    -0.15470
F3523       F  0.61743093  0.39872667  0.52131940    -0.15480
F3524       F  0.57019152  0.40523165  0.51616854    -0.13110
C3525       C  0.80467242  0.05170408  0.47967964     0.24900
C3526       C  0.77957211  0.02453198  0.48191499    -0.23210
C3527       C  0.75820951  0.01490697  0.46667417     0.19810
C3528       C  0.76222849  0.03180569  0.44933781     0.24840
C3529       C  0.78782204  0.05843315  0.44678687    -0.23150
C3530       C  0.80883650  0.06837829  0.46224507     0.19740
F3531       F  0.83339910  0.09441592  0.46052272    -0.13110
F3532       F  0.82523328  0.06213167  0.49441715    -0.15470
F3533       F  0.74178768  0.02142182  0.43454187    -0.15480
F3534       F  0.73410115  0.48846612  0.46804870    -0.13110
C3535       C  0.82708165  0.45986931  0.51164706     0.24900
C3536       C  0.82093807  0.47718540  0.52434514    -0.23210
C3537       C  0.83976456  0.99235809  0.54045881     0.19810
C3538       C  0.86501877  0.99097156  0.54339751     0.24840
C3539       C  0.87153510  0.47432507  0.53028343    -0.23150
C3540       C  0.85208666  0.45822276  0.51474532     0.19740
F3541       F  0.85736042  0.44084004  0.50263141    -0.13110
F3542       F  0.80906511  0.44495721  0.49607308    -0.15470
F3543       F  0.88357462  0.00660225  0.55852677    -0.15480
F3544       F  0.83422380  0.00936858  0.55278745    -0.13110
C3545       C  0.65035722  0.45699616  0.70361835     0.24900
C3546       C  0.62612324  0.45513978  0.69371037    -0.23210
C3547       C  0.60298465  0.42764627  0.68854998     0.19810
C3548       C  0.60531021  0.40299803  0.69132132     0.24840
C3549       C  0.63041005  0.40516312  0.69996884    -0.23150
C3550       C  0.65216007  0.43218880  0.70709809     0.19740
F3551       F  0.67605643  0.43500245  0.71642848    -0.13110
F3552       F  0.67329757  0.48299009  0.70873460    -0.15470
F3553       F  0.58303173  0.37702538  0.68537172    -0.15480
F3554       F  0.57824488  0.42462232  0.68044046    -0.13110
C3555       C  0.60808863  0.49581123  0.62314056     0.24900
C3556       C  0.60337186  0.50728166  0.64103615    -0.23210
C3557       C  0.58129175  0.51425901  0.64145797     0.19810
C3558       C  0.56373444  0.50912346  0.62449608     0.24840
C3559       C  0.56761304  0.49660024  0.60693080    -0.23150
C3560       C  0.59016235  0.49029301  0.60624503     0.19740
F3561       F  0.59469208  0.47864479  0.58927527    -0.13110
F3562       F  0.62967405  0.48944498  0.62219620    -0.15470
F3563       F  0.54165452  0.51457520  0.62573830    -0.15480
F3564       F  0.57537778  0.52416142  0.65878188    -0.13110
C3565       C  0.68889292  0.16272868  0.70939276     0.24900
C3566       C  0.66369873  0.13540513  0.70760529    -0.23210
C3567       C  0.63757776  0.13404541  0.70221983     0.19810
C3568       C  0.63653846  0.15943455  0.69932739     0.24840
C3569       C  0.66132576  0.18661079  0.70239833    -0.23150
C3570       C  0.68758941  0.18802431  0.70718893     0.19740
F3571       F  0.71210104  0.21394484  0.70957236    -0.13110
F3572       F  0.71487835  0.16497996  0.71340701    -0.15470
F3573       F  0.61090394  0.15739982  0.69452691    -0.15480
F3574       F  0.61271169  0.10824532  0.70081713    -0.13110
C3575       C  0.72384366  0.08419526  0.75240000     0.24900
C3576       C  0.69890840  0.08667440  0.75365510    -0.23210
C3577       C  0.69107638  0.09342586  0.77240138     0.19810
C3578       C  0.70881670  0.09934053  0.78932829     0.24840
C3579       C  0.73455916  0.09859231  0.78776041    -0.23150
C3580       C  0.74155532  0.09002324  0.76945533     0.19740
F3581       F  0.76612837  0.08855939  0.76789656    -0.13110
F3582       F  0.73183823  0.07770402  0.73445469    -0.15470
F3583       F  0.70071224  0.10540887  0.80736368    -0.15480
F3584       F  0.66640710  0.09468022  0.77419504    -0.13110
C3585       C  0.86122188  0.00314646  0.36996941     0.24900
C3586       C  0.83664708  0.47526938  0.36999754    -0.23210
C3587       C  0.80921492  0.47243291  0.36712250     0.19810
C3588       C  0.80635679  0.99692153  0.36504034     0.24840
C3589       C  0.83076383  0.02469055  0.36619077    -0.23150
C3590       C  0.85825662  0.02762411  0.36834286     0.19740
F3591       F  0.88225634  0.05423809  0.36889913    -0.13110
F3592       F  0.88812423  0.00670762  0.37182054    -0.15470
F3593       F  0.77950924  0.99351903  0.36321343    -0.15480
F3594       F  0.78493416  0.44604287  0.36765827    -0.13110
C3595       C  0.86961669  0.44320622  0.43569098     0.24900
C3596       C  0.87128883  0.42796888  0.41876228    -0.23210
C3597       C  0.88994054  0.41645734  0.41984928     0.19810
C3598       C  0.90674956  0.42051610  0.43734832     0.24840
C3599       C  0.90578817  0.43678661  0.45386605    -0.23150
C3600       C  0.88710562  0.44815068  0.45271746     0.19740
F3601       F  0.88567182  0.46419005  0.46817009    -0.13110
F3602       F  0.85089009  0.45339434  0.43583877    -0.15470
F3603       F  0.92508162  0.40986571  0.43768083    -0.15480
F3604       F  0.89291558  0.40241586  0.40365435    -0.13110
C3605       C  0.77244414  0.26626436  0.35598655     0.24900
C3606       C  0.79714376  0.29382900  0.35826879    -0.23210
C3607       C  0.82260122  0.29559912  0.36599352     0.19810
C3608       C  0.82346871  0.27046399  0.37059824     0.24840
C3609       C  0.79961716  0.24306810  0.36642595    -0.23150
C3610       C  0.77390958  0.24128997  0.35952165     0.19740
F3611       F  0.74999095  0.21526379  0.35627293    -0.13110
F3612       F  0.74667717  0.26334959  0.35033319    -0.15470
F3613       F  0.84813715  0.27301917  0.37831344    -0.15480
F3614       F  0.84715394  0.32150358  0.36819218    -0.13110
C3615       C  0.73113076  0.31180754  0.30916216     0.24900
C3616       C  0.75647324  0.33865362  0.31238247    -0.23210
C3617       C  0.76342064  0.36095546  0.29814769     0.19810
C3618       C  0.74605740  0.35612051  0.28084861     0.24840
C3619       C  0.72174013  0.32872410  0.27717378    -0.23150
C3620       C  0.71434631  0.30679725  0.29170031     0.19740
F3621       F  0.69045018  0.28041389  0.28919342    -0.13110
F3622       F  0.72231199  0.29021110  0.32305933    -0.15470
F3623       F  0.75379688  0.37790994  0.26725231    -0.15480
F3624       F  0.78768155  0.38707161  0.30043619    -0.13110
C3625       C  0.94674647  0.01082438  0.12810826     0.24900
C3626       C  0.92891981  0.49647139  0.11133440    -0.23210
C3627       C  0.89936770  0.48750504  0.11231275     0.19810
C3628       C  0.88765424  0.49216481  0.12985280     0.24840
C3629       C  0.90506961  0.50523180  0.14706921    -0.23150
C3630       C  0.93486069  0.01497430  0.14593277     0.19740
F3631       F  0.95221593  0.02735003  0.16230527    -0.13110
F3632       F  0.97537338  0.01957624  0.12759341    -0.15470
F3633       F  0.85913556  0.48395674  0.12995572    -0.15480
F3634       F  0.88178278  0.47444601  0.09613430    -0.13110
C3635       C  0.79292689  0.40974651  0.20234696     0.24900
C3636       C  0.76760908  0.40985674  0.19695132    -0.23210
C3637       C  0.76924301  0.43554288  0.19022753     0.19810
C3638       C  0.79602633  0.46084446  0.18855877     0.24840
C3639       C  0.82149390  0.46063649  0.19343821    -0.23150
C3640       C  0.81977506  0.43499778  0.20053059     0.19740
F3641       F  0.84417393  0.43438734  0.20533322    -0.13110
F3642       F  0.79160152  0.38518343  0.20923717    -0.15470
F3643       F  0.79726820  0.48511764  0.18108798    -0.15480
F3644       F  0.74498859  0.43570905  0.18434261    -0.13110
C3645       C  0.85456118  0.11059372  0.26979467     0.24900
C3646       C  0.86065668  0.10302456  0.28880564    -0.23210
C3647       C  0.87786757  0.09007344  0.29007123     0.19810
C3648       C  0.88948026  0.08533603  0.27237124     0.24840
C3649       C  0.88388920  0.09353831  0.25337554    -0.23150
C3650       C  0.86616799  0.10592710  0.25215909     0.19740
F3651       F  0.86064518  0.11401874  0.23388413    -0.13110
F3652       F  0.83770526  0.12287419  0.26839924    -0.15470
F3653       F  0.90688376  0.07368050  0.27377475    -0.15480
F3654       F  0.88399443  0.08279648  0.30844665    -0.13110
C3655       C  0.96670344  0.17042067  0.20610154     0.24900
C3656       C  0.96238869  0.14250253  0.20263653    -0.23210
C3657       C  0.98567273  0.13984001  0.19517473     0.19810
C3658       C  0.51289156  0.16430855  0.19239362     0.24840
C3659       C  0.51774070  0.19183507  0.19772762    -0.23150
C3660       C  0.49419047  0.19475701  0.20403021     0.19740
F3661       F  0.49779432  0.22121376  0.20827451    -0.13110
F3662       F  0.94439622  0.17417107  0.21187077    -0.15470
F3663       F  0.53493979  0.16080072  0.18567384    -0.15480
F3664       F  0.98276767  0.11345904  0.19188192    -0.13110
C3665       C  0.97996101  0.14491350  0.37479959     0.24900
C3666       C  0.99042496  0.14620638  0.35492286    -0.23210
C3667       C  0.97340059  0.14546865  0.33833018     0.19810
C3668       C  0.94724904  0.14471450  0.34146348     0.24840
C3669       C  0.93693571  0.14394189  0.36129039    -0.23150
C3670       C  0.95331714  0.14354661  0.37795324     0.19740
F3671       F  0.94408441  0.14288730  0.39729503    -0.13110
F3672       F  0.99598741  0.14608851  0.39118217    -0.15470
F3673       F  0.93170211  0.14412622  0.32493286    -0.15480
F3674       F  0.98192845  0.14517168  0.31890399    -0.13110
C3675       C  0.59233251  0.19431206  0.27801847     0.24900
C3676       C  0.59968735  0.22345194  0.27770258    -0.23210
C3677       C  0.59834243  0.23669490  0.29576820     0.19810
C3678       C  0.58838955  0.22066322  0.31374635     0.24840
C3679       C  0.57986353  0.19117165  0.31392854    -0.23150
C3680       C  0.58238080  0.17822716  0.29601073     0.19740
F3681       F  0.57352930  0.14960212  0.29565139    -0.13110
F3682       F  0.59355497  0.18115264  0.26068956    -0.15470
F3683       F  0.58652491  0.23373923  0.33091763    -0.15480
F3684       F  0.60696891  0.26523926  0.29600147    -0.13110
C3685       C  0.57111317  0.08248740  0.43593967     0.24900
C3686       C  0.55322177  0.07782049  0.41896267    -0.23210
C3687       C  0.52357655  0.05740656  0.42040593     0.19810
C3688       C  0.51233316  0.04104755  0.43818095     0.24840
C3689       C  0.53064596  0.04459828  0.45465632    -0.23150
C3690       C  0.56000911  0.06581951  0.45350773     0.19740
F3691       F  0.57800101  0.07045299  0.46944472    -0.13110
F3692       F  0.59956219  0.10295545  0.43538099    -0.15470
F3693       F  0.98389735  0.02057500  0.43883543    -0.15480
F3694       F  0.00583974  0.05207076  0.40420393    -0.13110
C3695       C  0.68255794  0.13551140  0.36132522     0.24900
C3696       C  0.68736304  0.11264110  0.36620762    -0.23210
C3697       C  0.66350078  0.08544438  0.37080478     0.19810
C3698       C  0.63558109  0.08160115  0.37139549     0.24840
C3699       C  0.63106783  0.10512640  0.36804659    -0.23150
C3700       C  0.65484454  0.13194349  0.36247360     0.19740
F3701       F  0.65174224  0.15537990  0.35953713    -0.13110
F3702       F  0.70499788  0.16195967  0.35660945    -0.15470
F3703       F  0.61298635  0.05495746  0.37566763    -0.15480
F3704       F  0.66718131  0.06254856  0.37469381    -0.13110
C3705       C  0.84685827  0.47389516  0.02766385     0.24900
C3706       C  0.85102825  0.45039221  0.03166716    -0.23210
C3707       C  0.82687578  0.42350377  0.03636808     0.19810
C3708       C  0.79943985  0.42044145  0.03817331     0.24840
C3709       C  0.79564645  0.44451245  0.03594732    -0.23150
C3710       C  0.81954972  0.47114987  0.03011652     0.19740
F3711       F  0.81697859  0.49502566  0.02805158    -0.13110
F3712       F  0.86950394  0.49998864  0.02246611    -0.15470
F3713       F  0.77660751  0.39395030  0.04247792    -0.15480
F3714       F  0.82980861  0.40005795  0.03918564    -0.13110
C3715       C  0.73313289  0.41841973  0.10412934     0.24900
C3716       C  0.71634701  0.41349506  0.08651323    -0.23210
C3717       C  0.68689466  0.39214075  0.08688221     0.19810
C3718       C  0.67476976  0.37529926  0.10433703     0.24840
C3719       C  0.69202122  0.37934905  0.12153698    -0.23150
C3720       C  0.72113686  0.40134206  0.12141731     0.19740
F3721       F  0.73796267  0.40634467  0.13812071    -0.13110
F3722       F  0.76127621  0.43969068  0.10453307    -0.15470
F3723       F  0.64662809  0.35399969  0.10404691    -0.15480
F3724       F  0.67026752  0.38653420  0.07000254    -0.13110
C3725       C  0.71974282  0.02184888  0.96344290     0.24900
C3726       C  0.73732743  0.02375065  0.98004857    -0.23210
C3727       C  0.76759151  0.04079411  0.97798210     0.19810
C3728       C  0.77983919  0.05584231  0.95985572     0.24840
C3729       C  0.76205915  0.05471663  0.94367422    -0.23150
C3730       C  0.73192005  0.03745205  0.94565516     0.19740
F3731       F  0.71408436  0.03525539  0.93017168    -0.13110
F3732       F  0.69059228  0.00437783  0.96418863    -0.15470
F3733       F  0.80903038  0.07249810  0.95848594    -0.15480
F3734       F  0.78535001  0.04380059  0.99371045    -0.13110
C3735       C  0.62439026  0.00473072  0.03721504     0.24900
C3736       C  0.59932433  0.47862724  0.03249195    -0.23210
C3737       C  0.60158303  0.45504956  0.02556425     0.19810
C3738       C  0.62874680  0.45773601  0.02285948     0.24840
C3739       C  0.65394051  0.98402191  0.02714549    -0.23150
C3740       C  0.65160690  0.00740877  0.03460066     0.19740
F3741       F  0.67569412  0.03287814  0.03905635    -0.13110
F3742       F  0.62243661  0.02762074  0.04412260    -0.15470
F3743       F  0.63053529  0.43521288  0.01499995    -0.15480
F3744       F  0.57750176  0.42993322  0.02043242    -0.13110
C3745       C  0.71514411  0.24031622  0.60477462     0.24900
C3746       C  0.72153436  0.25830858  0.58764267    -0.23210
C3747       C  0.71394712  0.27992453  0.58764986     0.19810
C3748       C  0.70096426  0.28407922  0.60475021     0.24840
C3749       C  0.69550909  0.26683731  0.62213439    -0.23150
C3750       C  0.70216151  0.24454600  0.62194169     0.19740
F3751       F  0.69743501  0.22789293  0.63870412    -0.13110
F3752       F  0.72278612  0.21963422  0.60522799    -0.15470
F3753       F  0.69348367  0.30484429  0.60433501    -0.15480
F3754       F  0.71925498  0.29708304  0.57109677    -0.13110
C3755       C  0.83153271  0.31257866  0.55964872     0.24900
C3756       C  0.80980347  0.30196810  0.54476238    -0.23210
C3757       C  0.81510547  0.31644006  0.52598494     0.19810
C3758       C  0.84169153  0.34156513  0.52234540     0.24840
C3759       C  0.86308004  0.35250689  0.53751654    -0.23150
C3760       C  0.85790214  0.33764718  0.55607726     0.19740
F3761       F  0.87853336  0.34744617  0.57076544    -0.13110
F3762       F  0.82708086  0.29867064  0.57773263    -0.15470
F3763       F  0.84601557  0.35595850  0.50448761    -0.15480
F3764       F  0.79409009  0.30697650  0.51159762    -0.13110
C3765       C  0.64137276  0.12555347  0.53661448     0.24900
C3766       C  0.66540075  0.12261193  0.53169868    -0.23210
C3767       C  0.66145878  0.09471115  0.52922061     0.19810
C3768       C  0.63378554  0.07045902  0.53000392     0.24840
C3769       C  0.60964009  0.07351051  0.53404622    -0.23150
C3770       C  0.61377976  0.10118316  0.53797823     0.19740
F3771       F  0.59083620  0.10485104  0.54175417    -0.13110
F3772       F  0.64421063  0.15211365  0.53864671    -0.15470
F3773       F  0.63057014  0.04400552  0.52655511    -0.15480
F3774       F  0.68438276  0.09100694  0.52543752    -0.13110
C3775       C  0.78332662  0.17076657  0.46365573     0.24900
C3776       C  0.76703797  0.16221141  0.44565960    -0.23210
C3777       C  0.73913449  0.15856917  0.44555614     0.19810
C3778       C  0.72766432  0.16331443  0.46327194     0.24840
C3779       C  0.74395763  0.17174018  0.48131797    -0.23150
C3780       C  0.77199505  0.17574577  0.48134248     0.19740
F3781       F  0.78766075  0.18271009  0.49880140    -0.13110
F3782       F  0.80928760  0.17217551  0.46449916    -0.15470
F3783       F  0.70048036  0.15927902  0.46293960    -0.15480
F3784       F  0.72293815  0.15017823  0.42833242    -0.13110
C3785       C  0.84348364  0.20644420  0.77045247     0.24900
C3786       C  0.86140756  0.20820639  0.78674438    -0.23210
C3787       C  0.89134608  0.22709762  0.78527324     0.19810
C3788       C  0.90328629  0.24326882  0.76766884     0.24840
C3789       C  0.88566661  0.24039063  0.75086537    -0.23150
C3790       C  0.85555328  0.22226864  0.75257269     0.19740
F3791       F  0.83795286  0.21883208  0.73663371    -0.13110
F3792       F  0.81445771  0.18835587  0.77143968    -0.15470
F3793       F  0.93224225  0.26182680  0.76708349    -0.15480
F3794       F  0.90914230  0.23013999  0.80100882    -0.13110
C3795       C  0.51506255  0.28760252  0.71955088     0.24900
C3796       C  0.52420184  0.28194481  0.70099744    -0.23210
C3797       C  0.00564186  0.27358102  0.68403994     0.19810
C3798       C  0.97788371  0.27012531  0.68589045     0.24840
C3799       C  0.96864695  0.27530817  0.70465593    -0.23150
C3800       C  0.98778207  0.28464939  0.72129849     0.19740
F3801       F  0.98011452  0.29124945  0.73934068    -0.13110
F3802       F  0.53286846  0.29659028  0.73598664    -0.15470
F3803       F  0.95978234  0.26085391  0.66964513    -0.15480
F3804       F  0.51396347  0.26771018  0.66599310    -0.13110
C3805       C  0.78155861  0.30803435  0.67546251     0.24900
C3806       C  0.77182079  0.30866023  0.69526860    -0.23210
C3807       C  0.78937185  0.31082875  0.71192566     0.19810
C3808       C  0.81655280  0.31333719  0.70873069     0.24840
C3809       C  0.82646239  0.31337675  0.68883862    -0.23150
C3810       C  0.80837567  0.31016881  0.67231035     0.19740
F3811       F  0.81649788  0.30868767  0.65296980    -0.13110
F3812       F  0.76481720  0.30480805  0.65900774    -0.15470
F3813       F  0.83360770  0.31680842  0.72502776    -0.15480
F3814       F  0.78075927  0.31167356  0.73122242    -0.13110
C3815       C  0.92819815  0.38770814  0.64760918     0.24900
C3816       C  0.91604102  0.35757771  0.64731323    -0.23210
C3817       C  0.91672043  0.34390294  0.62922272     0.19810
C3818       C  0.92875397  0.36008820  0.61150908     0.24840
C3819       C  0.94005646  0.39007895  0.61167660    -0.23150
C3820       C  0.94010012  0.40386667  0.62987014     0.19740
F3821       F  0.95147517  0.43295653  0.63035456    -0.13110
F3822       F  0.92811768  0.40134085  0.66500251    -0.15470
F3823       F  0.92806045  0.34636732  0.59396195    -0.15480
F3824       F  0.90436954  0.31471426  0.62848971    -0.13110
C3825       C  0.65442053  0.47179368  0.86529170     0.24900
C3826       C  0.63034445  0.47539161  0.86859974    -0.23210
C3827       C  0.63454548  0.00358588  0.86884822     0.19810
C3828       C  0.66238125  0.02760343  0.86696808     0.24840
C3829       C  0.68647987  0.02390486  0.86445461    -0.23150
C3830       C  0.68214202  0.99579994  0.86308321     0.19740
F3831       F  0.70503056  0.49155277  0.86096936    -0.13110
F3832       F  0.65144501  0.44505177  0.86556292    -0.15470
F3833       F  0.66583083  0.05453195  0.86767352    -0.15480
F3834       F  0.61173582  0.00789072  0.87119685    -0.13110
C3835       C  0.52100046  0.41249793  0.92265295     0.24900
C3836       C  0.55124294  0.42705801  0.91983935    -0.23210
C3837       C  0.56890083  0.44457028  0.93587815     0.19810
C3838       C  0.55679597  0.44915144  0.95337666     0.24840
C3839       C  0.52660681  0.43549159  0.95586121    -0.23150
C3840       C  0.50889719  0.41623844  0.94059975     0.19740
F3841       F  0.97973866  0.40179401  0.94262556    -0.13110
F3842       F  0.00295285  0.39561292  0.90768868    -0.15470
F3843       F  0.57484210  0.46681156  0.96807462    -0.15480
F3844       F  0.59812560  0.45725041  0.93479331    -0.13110
C3845       C  0.96402842  0.29457990  0.85743658     0.24900
C3846       C  0.98985973  0.29368748  0.85686202    -0.23210
C3847       C  0.98862442  0.26692612  0.85962323     0.19810
C3848       C  0.96207603  0.24154798  0.86237776     0.24840
C3849       C  0.93630868  0.24247006  0.86274186    -0.23150
C3850       C  0.93750765  0.26915433  0.86026930     0.19740
F3851       F  0.91278362  0.27027377  0.85916438    -0.13110
F3852       F  0.96427198  0.31975330  0.85409009    -0.15470
F3853       F  0.96150508  0.21602825  0.86462970    -0.15480
F3854       F  0.51320628  0.26534455  0.85952626    -0.13110
C3855       C  0.58926105  0.35912463  0.79824927     0.24900
C3856       C  0.57850626  0.33889969  0.81427248    -0.23210
C3857       C  0.58138431  0.31415908  0.81294469     0.19810
C3858       C  0.59326368  0.30896713  0.79559418     0.24840
C3859       C  0.60306660  0.32863428  0.77929505    -0.23150
C3860       C  0.60161091  0.35411656  0.78096961     0.19740
F3861       F  0.61065489  0.37338119  0.76538506    -0.13110
F3862       F  0.58633300  0.38290715  0.79878142    -0.15470
F3863       F  0.59528274  0.28466429  0.79474738    -0.15480
F3864       F  0.57235175  0.29475022  0.82844024    -0.13110
C3865       C  0.74783597  0.07633323  0.27225050     0.24900
C3866       C  0.73862508  0.08818868  0.28760279    -0.23210
C3867       C  0.71333820  0.08968444  0.28446980     0.19810
C3868       C  0.69674439  0.07805547  0.26678854     0.24840
C3869       C  0.70541456  0.06515183  0.25177279    -0.23150
C3870       C  0.73164900  0.06528844  0.25447351     0.19740
F3871       F  0.74160522  0.05449353  0.23988206    -0.13110
F3872       F  0.77275061  0.07561541  0.27437806    -0.15470
F3873       F  0.67145311  0.07806080  0.26489241    -0.15480
F3874       F  0.70387820  0.10105505  0.29898144    -0.13110
C3875       C  0.63279716  0.42630888  0.19978563     0.24900
C3876       C  0.65732133  0.42319001  0.20168417    -0.23210
C3877       C  0.68414430  0.44764758  0.20601875     0.19810
C3878       C  0.68643850  0.47462226  0.20864527     0.24840
C3879       C  0.66168517  0.47763322  0.20793131    -0.23150
C3880       C  0.63484835  0.45317267  0.20317208     0.19740
F3881       F  0.61031456  0.45480889  0.20281580    -0.13110
F3882       F  0.60650717  0.40299577  0.19580928    -0.15470
F3883       F  0.71304405  0.49787882  0.21192176    -0.15480
F3884       F  0.70829098  0.44547317  0.20769084    -0.13110
C3885       C  0.55756413  0.49656030  0.12651120     0.24900
C3886       C  0.55414322  0.01406957  0.11202002    -0.23210
C3887       C  0.56873353  0.04415306  0.11520831     0.19810
C3888       C  0.58653135  0.05642484  0.13206457     0.24840
C3889       C  0.58859608  0.03895798  0.14727297    -0.23150
C3890       C  0.57416488  0.00881000  0.14414314     0.19740
F3891       F  0.57504052  0.49099353  0.15848700    -0.13110
F3892       F  0.54369272  0.46744309  0.12418246    -0.15470
F3893       F  0.60185195  0.08569347  0.13338429    -0.15480
F3894       F  0.56576830  0.06206992  0.10206191    -0.13110
C3895       C  0.59656701  0.12154180  0.19983304     0.24900
C3896       C  0.62109416  0.11862301  0.19686886    -0.23210
C3897       C  0.64839393  0.14364940  0.19522616     0.19810
C3898       C  0.65103023  0.17096950  0.19591234     0.24840
C3899       C  0.62659221  0.17391272  0.19851048    -0.23150
C3900       C  0.59934053  0.14902915  0.20071991     0.19740
F3901       F  0.57549293  0.15137006  0.20373892    -0.13110
F3902       F  0.56992423  0.09776882  0.20150455    -0.15470
F3903       F  0.67727141  0.19459701  0.19267315    -0.15480
F3904       F  0.67231608  0.14163630  0.19148939    -0.13110
C3905       C  0.66745973  0.47271895  0.34323805     0.24900
C3906       C  0.65568867  0.45380413  0.35988313    -0.23210
C3907       C  0.66783254  0.46322360  0.37930930     0.19810
C3908       C  0.69196430  0.49089954  0.38184192     0.24840
C3909       C  0.70433905  0.00921052  0.36492534    -0.23150
C3910       C  0.69162640  0.99993556  0.34568497     0.19740
F3911       F  0.70236202  0.01749841  0.32918466    -0.13110
F3912       F  0.65530901  0.46492779  0.32449660    -0.15470
F3913       F  0.70388092  0.49932410  0.40059071    -0.15480
F3914       F  0.65699457  0.44533330  0.39561673    -0.13110
C3915       C  0.62804088  0.37716773  0.27892482     0.24900
C3916       C  0.61499389  0.34714572  0.27652479    -0.23210
C3917       C  0.59820729  0.32883371  0.29242493     0.19810
C3918       C  0.59640357  0.34043595  0.31103639     0.24840
C3919       C  0.61032572  0.37058751  0.31369408    -0.23150
C3920       C  0.62529820  0.38874142  0.29714544     0.19740
F3921       F  0.63706403  0.41781521  0.29842350    -0.13110
F3922       F  0.64331029  0.39542215  0.26350565    -0.15470
F3923       F  0.58195690  0.32214965  0.32661571    -0.15480
F3924       F  0.58452892  0.29972123  0.29027883    -0.13110
C3925       C  0.00814659  0.37502298  0.43719865     0.24900
C3926       C  0.52271951  0.39208316  0.42019258    -0.23210
C3927       C  0.53469949  0.42224400  0.42123376     0.19810
C3928       C  0.53096906  0.43491648  0.43869606     0.24840
C3929       C  0.51478196  0.41752374  0.45512967    -0.23150
C3930       C  0.00395202  0.38758010  0.45441040     0.19740
F3931       F  0.98927575  0.37040116  0.47043599    -0.13110
F3932       F  0.99784687  0.34608917  0.43713895    -0.15470
F3933       F  0.54181109  0.46392862  0.43909653    -0.15480
F3934       F  0.54876018  0.43928475  0.40501633    -0.13110
C3935       C  0.94737321  0.30965026  0.36877772     0.24900
C3936       C  0.97454498  0.31178094  0.37100706    -0.23210
C3937       C  0.97647253  0.28650929  0.37030336     0.19810
C3938       C  0.95149575  0.25949735  0.36828063     0.24840
C3939       C  0.92424429  0.25734373  0.36707281    -0.23150
C3940       C  0.92244292  0.28261521  0.36679418     0.19740
F3941       F  0.89657635  0.28110416  0.36433535    -0.13110
F3942       F  0.94498825  0.33376403  0.36879234    -0.15470
F3943       F  0.95375613  0.23531420  0.36858033    -0.16680
F3944       F  0.00232152  0.28782605  0.37284129    -0.13110
C3945       C  0.62521841  0.13435324  0.02321313     0.24900
C3946       C  0.64049403  0.14063126  0.04168535    -0.23210
C3947       C  0.63050130  0.11979314  0.05719922     0.19810
C3948       C  0.60516361  0.09341406  0.05453846     0.24840
C3949       C  0.58912268  0.08763541  0.03652764    -0.23150
C3950       C  0.59963523  0.10791915  0.02063851     0.19740
F3951       F  0.58458427  0.10257264  0.00300632    -0.13110
F3952       F  0.63431849  0.15434937  0.00810699    -0.15470
F3953       F  0.59659843  0.07312282  0.06935195    -0.15480
F3954       F  0.64525888  0.12512171  0.07497888    -0.13110
C3955       C  0.65478772  0.22875139  0.08587629     0.24900
C3956       C  0.68173498  0.23092221  0.08200226    -0.23210
C3957       C  0.70445473  0.24622369  0.09592006     0.19810
C3958       C  0.69993034  0.25807187  0.11364250     0.24840
C3959       C  0.67241400  0.25418524  0.11806168    -0.23150
C3960       C  0.64999638  0.23954648  0.10387726     0.19740
F3961       F  0.62317728  0.23540059  0.10746143    -0.13110
F3962       F  0.63277684  0.21575176  0.07230224    -0.15470
F3963       F  0.72203211  0.27184653  0.12704094    -0.15480
F3964       F  0.73059272  0.24833474  0.09300735    -0.13110
C3965       C  0.75493866  0.18088260  0.94374690     0.24900
C3966       C  0.78102376  0.18051728  0.94202820    -0.23210
C3967       C  0.80126492  0.19208170  0.95786129     0.19810
C3968       C  0.79599224  0.20434519  0.97483939     0.24840
C3969       C  0.77061242  0.20615181  0.97623098    -0.23150
C3970       C  0.74985120  0.19382083  0.96064090     0.19740
F3971       F  0.72522747  0.19527484  0.96131772    -0.13110
F3972       F  0.73494870  0.16985505  0.92867887    -0.15470
F3973       F  0.81576900  0.21425916  0.99010542    -0.15480
F3974       F  0.82609990  0.19104689  0.95708540    -0.13110
C3975       C  0.86955545  0.31813742  0.02416992     0.24900
C3976       C  0.86735409  0.34135974  0.03210571    -0.23210
C3977       C  0.84003517  0.33652669  0.03815663     0.19810
C3978       C  0.81509626  0.31014238  0.03416224     0.24840
C3979       C  0.81710854  0.28736892  0.02509625    -0.23150
C3980       C  0.84480309  0.29128893  0.02113541     0.19740
F3981       F  0.84801153  0.26917133  0.01414984    -0.13110
F3982       F  0.89573660  0.32135319  0.01938928    -0.15470
F3983       F  0.78898858  0.30759487  0.03814997    -0.15480
F3984       F  0.83721574  0.35773557  0.04714647    -0.13110
C3985       C  0.56063115  0.25888392  0.58718212     0.24900
C3986       C  0.54280065  0.22894303  0.58459962    -0.23210
C3987       C  0.53897195  0.21038775  0.60097871     0.19810
C3988       C  0.55418981  0.22121237  0.61903784     0.24840
C3989       C  0.57289242  0.25099843  0.62140431    -0.23150
C3990       C  0.57546535  0.26987949  0.60553265     0.19740
F3991       F  0.59336111  0.29881738  0.60741576    -0.13110
F3992       F  0.56454800  0.27734446  0.57171925    -0.15470
F3993       F  0.55035031  0.20250386  0.63433018    -0.15480
F3994       F  0.52012671  0.18164094  0.59961316    -0.13110
C3995       C  0.50038517  0.10592943  0.51656800     0.24900
C3996       C  0.50133903  0.09064984  0.53377750    -0.23210
C3997       C  0.50649840  0.10392596  0.55291686     0.19810
C3998       C  0.50984645  0.13122058  0.55501836     0.24840
C3999       C  0.50957627  0.14715256  0.53794551    -0.23150
C4000       C  0.50488111  0.13410430  0.51858568     0.19740
F4001       F  0.50520869  0.14866045  0.50157152    -0.13110
F4002       F  0.99580754  0.09394156  0.49776014    -0.15470
F4003       F  0.51212338  0.14131212  0.57421787    -0.15480
F4004       F  0.50723830  0.09005499  0.57004515    -0.13110
C4005       C  0.99452544  0.31510218  0.51620253     0.24900
C4006       C  0.97130305  0.28970145  0.52407002    -0.23210
C4007       C  0.94881064  0.29092738  0.53430151     0.19810
C4008       C  0.94952674  0.31731455  0.53655940     0.24840
C4009       C  0.97256974  0.34260703  0.52839955    -0.23150
C4010       C  0.99500957  0.34135873  0.51822917     0.19740
F4011       F  0.51676907  0.36543900  0.50955422    -0.13110
F4012       F  0.51598925  0.31419422  0.50577806    -0.15470
F4013       F  0.92755569  0.31813792  0.54631763    -0.15480
F4014       F  0.92586297  0.26642016  0.54162936    -0.13110
C4015       C  0.93266157  0.18738332  0.46696526     0.24900
C4016       C  0.92517177  0.20190121  0.48151086    -0.23210
C4017       C  0.90024637  0.20397435  0.47820121     0.19810
C4018       C  0.88479384  0.19421114  0.46012312     0.24840
C4019       C  0.89215461  0.17978790  0.44554465    -0.23150
C4020       C  0.91592649  0.17590198  0.44934016     0.19740
F4021       F  0.92402151  0.16252621  0.43545255    -0.13110
F4022       F  0.95697124  0.18559791  0.46920386    -0.15470
F4023       F  0.86273344  0.19930474  0.45683110    -0.15480
F4024       F  0.89095152  0.21594957  0.49238942    -0.13110
C4025       C  0.85439413  0.30584567  0.87709359     0.24900
C4026       C  0.83056671  0.30959020  0.87321435    -0.23210
C4027       C  0.80519367  0.28622832  0.86508612     0.19810
C4028       C  0.80345822  0.25954321  0.86163298     0.24840
C4029       C  0.82667568  0.25541803  0.86686114    -0.23150
C4030       C  0.85215125  0.27893053  0.87455662     0.19740
F4031       F  0.87488849  0.27583040  0.88006325    -0.13110
F4032       F  0.87993277  0.32821043  0.88363449    -0.15470
F4033       F  0.77833366  0.23722492  0.85449878    -0.15480
F4034       F  0.78142776  0.28859383  0.86158438    -0.13110
C4035       C  0.85430231  0.40297858  0.93672936     0.24900
C4036       C  0.86432111  0.39193871  0.92127315    -0.23210
C4037       C  0.89239430  0.39603531  0.92264310     0.19810
C4038       C  0.90950711  0.40947627  0.93954903     0.24840
C4039       C  0.89919248  0.41948533  0.95534382    -0.23150
C4040       C  0.87176465  0.41685907  0.95364426     0.19740
F4041       F  0.86138211  0.42644080  0.96876443    -0.13110
F4042       F  0.82727191  0.39927502  0.93589096    -0.15470
F4043       F  0.93642672  0.41297013  0.94044069    -0.15480
F4044       F  0.90341039  0.38714890  0.90748652    -0.13110
C4045       C  0.71972879  0.35484217  0.81593832     0.24900
C4046       C  0.74878672  0.36222066  0.81794660    -0.23210
C4047       C  0.76306132  0.35810008  0.80139749     0.19810
C4048       C  0.74868227  0.34750663  0.78292659     0.24840
C4049       C  0.72004509  0.34129832  0.78073082    -0.23150
C4050       C  0.70547502  0.34454898  0.79740386     0.19740
F4051       F  0.67744100  0.33776833  0.79567972    -0.13110
F4052       F  0.70539030  0.35812157  0.83183009    -0.15470
F4053       F  0.76317839  0.34487854  0.76685699    -0.15480
F4054       F  0.79145366  0.36605726  0.80273295    -0.13110
C4055       C  0.79682873  0.46421815  0.87807785     0.24900
C4056       C  0.79281745  0.45198898  0.85848975    -0.23210
C4057       C  0.79146924  0.46762996  0.84173654     0.19810
C4058       C  0.79212700  0.99366722  0.84452207     0.24840
C4059       C  0.79670138  0.00636806  0.86393402    -0.23150
C4060       C  0.79935089  0.49146832  0.88071250     0.19740
F4061       F  0.80298415  0.00257601  0.89977691    -0.13110
F4062       F  0.79741392  0.44949343  0.89473412    -0.15470
F4063       F  0.78833694  0.00643730  0.82790524    -0.15480
F4064       F  0.78983508  0.45793821  0.82240685    -0.13110
C4065       C  0.51060034  0.12356689  0.69750812     0.24900
C4066       C  0.48566600  0.12318488  0.69020224    -0.23210
C4067       C  0.48601824  0.14936904  0.68732186     0.19810
C4068       C  0.51131808  0.17563986  0.69101466     0.24840
C4069       C  0.53647479  0.17597333  0.69764184    -0.23150
C4070       C  0.53583583  0.14981932  0.70122774     0.19740
F4071       F  0.55963912  0.14975447  0.70831528    -0.13110
F4072       F  0.51050389  0.09845651  0.70085395    -0.15470
F4073       F  0.51170680  0.20079592  0.68723283    -0.15480
F4074       F  0.96232284  0.14948012  0.68000366    -0.13110
C4075       C  0.92200455  0.02324102  0.63115860     0.24900
C4076       C  0.94309176  0.03579454  0.64655839    -0.23210
C4077       C  0.96894928  0.03509413  0.64447738     0.19810
C4078       C  0.97441214  0.02396045  0.62692085     0.24840
C4079       C  0.95379296  0.01207874  0.61131684    -0.23150
C4080       C  0.92718453  0.01116840  0.61380734     0.19740
F4081       F  0.90680660  0.99998128  0.59897698    -0.13110
F4082       F  0.89701693  0.02396334  0.63236774    -0.15470
F4083       F  0.50000195  0.02471233  0.62523251    -0.15480
F4084       F  0.48917007  0.04539652  0.65945388    -0.13110
C4085       C  0.78528930  0.42764401  0.69581279     0.24900
C4086       C  0.75733846  0.42323261  0.69898754    -0.23210
C4087       C  0.75394806  0.44719772  0.70282525     0.19810
C4088       C  0.77804286  0.47486363  0.70448792     0.24840
C4089       C  0.80616019  0.47909779  0.70271523    -0.23150
C4090       C  0.80950763  0.45528557  0.69781662     0.19740
F4091       F  0.83624394  0.45837197  0.69625358    -0.13110
F4092       F  0.78928872  0.40493469  0.69200697    -0.15470
F4093       F  0.77387980  0.49751002  0.70814049    -0.15480
F4094       F  0.72720766  0.44382171  0.70494203    -0.13110
C4095       C  0.85621303  0.10084345  0.77009848     0.24900
C4096       C  0.84457094  0.08380082  0.78765195    -0.23210
C4097       C  0.83929560  0.05532794  0.78761266     0.19810
C4098       C  0.84390533  0.04343760  0.77007428     0.24840
C4099       C  0.85418199  0.05992012  0.75216996    -0.23150
C4100       C  0.86094433  0.08897639  0.75246281     0.19740
F4101       F  0.87076303  0.10542245  0.73539771    -0.13110
F4102       F  0.86179204  0.12855436  0.76974844    -0.15470
F4103       F  0.83831325  0.01572051  0.77057660    -0.15480
F4104       F  0.83030551  0.03919896  0.80477399    -0.13110
C4105       C  0.85571790  0.54607400  0.73297154     0.04430
C4106       C  0.88127601  0.55757277  0.72149613    -0.11720
C4107       C  0.88244402  0.54488052  0.70281394     0.01930
C4108       C  0.85685102  0.52000810  0.69621190    -0.10240
C4109       C  0.83168823  0.50737981  0.70820467     0.04420
C4110       C  0.83130334  0.52081059  0.72637176    -0.09670
H4111       H  0.90013343  0.57592339  0.72782111     0.10020
H4112       H  0.85592076  0.51004647  0.68175547     0.07550
H4113       H  0.81195447  0.51129848  0.73567061     0.07390
C4114       C  0.93962059  0.55198965  0.66375305     0.04430
C4115       C  0.91384867  0.54062290  0.67509465    -0.11720
C4116       C  0.91017608  0.55699963  0.69062689     0.01930
C4117       C  0.93376057  0.58492640  0.69469827    -0.10240
C4118       C  0.96010170  0.59546581  0.68441875     0.04420
C4119       C  0.96259692  0.57936764  0.66870684    -0.09670
H4120       H  0.89725891  0.51874163  0.67184668     0.10020
H4121       H  0.93238009  0.59886693  0.70593432     0.07550
H4122       H  0.48261917  0.58851264  0.66016314     0.07390
C4123       C  0.76541490  0.87766505  0.83617351     0.04430
C4124       C  0.78151443  0.86796412  0.84684284    -0.11720
C4125       C  0.80207216  0.88552832  0.86156390     0.01930
C4126       C  0.80610199  0.91348035  0.86496607    -0.10240
C4127       C  0.78854025  0.92254350  0.85527805     0.04420
C4128       C  0.76766910  0.90396342  0.84133954    -0.09670
H4129       H  0.77744499  0.84653791  0.84336258     0.10020
H4130       H  0.82323795  0.92875380  0.87465578     0.07550
H4131       H  0.75400380  0.91055727  0.83361420     0.07390
C4132       C  0.84602180  0.87598458  0.90366239     0.04430
C4133       C  0.83229808  0.88746364  0.89194399    -0.11720
C4134       C  0.81854110  0.87439495  0.87344318     0.01930
C4135       C  0.81990418  0.84990335  0.86681970    -0.10240
C4136       C  0.83151806  0.83690296  0.87926582     0.04420
C4137       C  0.84393240  0.84987092  0.89787382    -0.09670
H4138       H  0.83279723  0.90668420  0.89746122     0.10020
H4139       H  0.81222903  0.84070876  0.85195627     0.07550
H4140       H  0.85254766  0.83991799  0.90789211     0.07390
C4141       C  0.94470193  0.71777956  0.49881874     0.04430
C4142       C  0.95834366  0.70596245  0.51052593    -0.11720
C4143       C  0.97860868  0.72235080  0.52592043     0.01930
C4144       C  0.98339282  0.75052536  0.52983143    -0.10240
C4145       C  0.96832888  0.76146315  0.51913090     0.04420
C4146       C  0.95012654  0.74563350  0.50327088    -0.09670
H4147       H  0.95264173  0.68395222  0.50746552     0.10020
H4148       H  0.99893643  0.76461556  0.54091667     0.07550
H4149       H  0.94038781  0.75545517  0.49421338     0.07390
C4150       C  0.52885128  0.71647032  0.56482229     0.04430
C4151       C  0.51069264  0.72473689  0.55532751    -0.11720
C4152       C  0.49533851  0.71086318  0.53738825     0.01930
C4153       C  0.49601005  0.68580304  0.53096784    -0.10240
C4154       C  0.51323405  0.67656311  0.54111149     0.04420
C4155       C  0.53172625  0.69405206  0.55655914    -0.09670
H4156       H  0.50811188  0.74136860  0.56261842     0.10020
H4157       H  0.48273660  0.67280883  0.51858082     0.07550
H4158       H  0.54681483  0.68867118  0.56351770     0.07390
C4159       C  0.76694947  0.72163965  0.99380252     0.04430
C4160       C  0.74141738  0.70964201  0.00539983    -0.11720
C4161       C  0.74019229  0.72243766  0.02402316     0.01930
C4162       C  0.76579771  0.74703216  0.03081642    -0.10240
C4163       C  0.79067090  0.76040760  0.01857940     0.04420
C4164       C  0.79046556  0.74803119  0.99980952    -0.09670
H4165       H  0.72305344  0.69013738  0.99983844     0.10020
H4166       H  0.76692079  0.75571782  0.04582058     0.07550
H4167       H  0.80916837  0.75855287  0.98992789     0.07390
C4168       C  0.68486745  0.71455225  0.06476595     0.04430
C4169       C  0.70936371  0.72663476  0.05204548    -0.11720
C4170       C  0.71295537  0.70999308  0.03668555     0.01930
C4171       C  0.69013043  0.68139851  0.03363619    -0.10240
C4172       C  0.66510944  0.66979306  0.04558943     0.04420
C4173       C  0.66306357  0.68601602  0.06141532    -0.09670
H4174       H  0.72518822  0.74915692  0.05414492     0.10020
H4175       H  0.69147111  0.66743831  0.02239173     0.07550
H4176       H  0.64413931  0.67621972  0.07113853     0.07390
C4177       C  0.52409905  0.87813461  0.40117678     0.04430
C4178       C  0.55030172  0.88817728  0.39082976    -0.11720
C4179       C  0.55189929  0.87537690  0.37243967     0.01930
C4180       C  0.52625304  0.85053699  0.36567622    -0.10240
C4181       C  0.00023751  0.83968966  0.37648244     0.04420
C4182       C  0.99912798  0.85419728  0.39374199    -0.09670
H4183       H  0.56926012  0.90553004  0.39784060     0.10020
H4184       H  0.52558732  0.83883553  0.35219914     0.07550
H4185       H  0.97887888  0.84612401  0.40187432     0.07390
C4186       C  0.60894184  0.88344481  0.33333826     0.04430
C4187       C  0.63344639  0.90796463  0.34062881    -0.11720
C4188       C  0.63124794  0.92425135  0.35634445     0.01930
C4189       C  0.60485145  0.91390383  0.36656876    -0.10240
C4190       C  0.58018706  0.88729813  0.36101826     0.04420
C4191       C  0.58270038  0.87298157  0.34373327    -0.09670
H4192       H  0.65405730  0.91569070  0.33306042     0.10020
H4193       H  0.60385458  0.92777760  0.37802193     0.07550
H4194       H  0.56436954  0.85423512  0.33747752     0.07390
C4195       C  0.60419373  0.55237366  0.16668639     0.04430
C4196       C  0.60163999  0.57495990  0.17529103    -0.11720
C4197       C  0.61818062  0.59017360  0.19207391     0.01930
C4198       C  0.63477354  0.58034696  0.20218075    -0.10240
C4199       C  0.63684899  0.55657117  0.19473534     0.04420
C4200       C  0.62227085  0.54374559  0.17624167    -0.09670
H4201       H  0.58783085  0.58192042  0.16824785     0.10020
H4202       H  0.64585758  0.59173746  0.21579445     0.07550
H4203       H  0.62528433  0.52754932  0.16872102     0.07390
C4204       C  0.68620021  0.54922514  0.23428017     0.04430
C4205       C  0.67296602  0.56112605  0.22225343    -0.11720
C4206       C  0.65369265  0.54513292  0.20623657     0.01930
C4207       C  0.65002207  0.51752972  0.20179165    -0.10240
C4208       C  0.66410853  0.50593080  0.21317678     0.04420
C4209       C  0.68094887  0.52144113  0.22986793    -0.09670
H4210       H  0.67831039  0.58299732  0.22552220     0.10020
H4211       H  0.63621066  0.50459614  0.18956424     0.07550
H4212       H  0.69012170  0.51172080  0.23959859     0.07390
C4213       C  0.56170380  0.84182419  0.83132043     0.04430
C4214       C  0.57232533  0.86736851  0.84278415    -0.11720
C4215       C  0.55548079  0.87028693  0.85838754     0.01930
C4216       C  0.52790698  0.84602385  0.86249262    -0.10240
C4217       C  0.51781923  0.81992758  0.85178907     0.04420
C4218       C  0.53446301  0.81845321  0.83594796    -0.09670
H4219       H  0.59404138  0.88440476  0.83954835     0.10020
H4220       H  0.51398664  0.84691325  0.87401412     0.07550
H4221       H  0.52595572  0.79884808  0.82700447     0.07390
C4222       C  0.56447216  0.92551116  0.90001428     0.04430
C4223       C  0.55438332  0.89931275  0.88925390    -0.11720
C4224       C  0.56662172  0.89824367  0.87026851     0.01930
C4225       C  0.59025829  0.92426517  0.86293142    -0.10240
C4226       C  0.60188215  0.94998842  0.87415989     0.04420
C4227       C  0.58804125  0.95066201  0.89205011    -0.09670
H4228       H  0.53758570  0.87982829  0.89620509     0.10020
H4229       H  0.60026645  0.92510334  0.84850149     0.07550
H4230       H  0.59639486  0.97087051  0.90017786     0.07390
C4231       C  0.90007629  0.83996165  0.66514050     0.04430
C4232       C  0.91001975  0.82395750  0.67580402    -0.11720
C4233       C  0.89303519  0.80403638  0.69116310     0.01930
C4234       C  0.86537870  0.80066424  0.69511066    -0.10240
C4235       C  0.85579020  0.81753690  0.68502082     0.04420
C4236       C  0.87358621  0.83745067  0.67028148    -0.09670
H4237       H  0.93110681  0.82759879  0.67172251     0.10020
H4238       H  0.85045109  0.78433213  0.70545712     0.07550
H4239       H  0.86634462  0.85033810  0.66217528     0.07390
C4240       C  0.89918984  0.75503311  0.73139262     0.04430
C4241       C  0.88977671  0.77161598  0.72078106    -0.11720
C4242       C  0.90369082  0.78658486  0.70265895     0.01930
C4243       C  0.92872112  0.78573592  0.69640453    -0.10240
C4244       C  0.93909266  0.77055478  0.70770554     0.04420
C4245       C  0.92312325  0.75381809  0.72422001    -0.09670
H4246       H  0.87232191  0.77347077  0.72741613     0.10020
H4247       H  0.94119607  0.79745665  0.68330572     0.07550
H4248       H  0.93060775  0.74114959  0.73235951     0.07390
C4249       C  0.73058520  0.67310128  0.50059129     0.04430
C4250       C  0.70591226  0.64845056  0.50744807    -0.11720
C4251       C  0.69332165  0.64838596  0.52607401     0.01930
C4252       C  0.70611838  0.67344980  0.53812791    -0.10240
C4253       C  0.73044419  0.69932385  0.53113460     0.04420
C4254       C  0.74241447  0.69851075  0.51210261    -0.09670
H4255       H  0.69624116  0.62927280  0.49799886     0.10020
H4256       H  0.69667680  0.67222460  0.55286279     0.07550
H4257       H  0.76046327  0.71749226  0.50558448     0.07390
C4258       C  0.73778172  0.75581906  0.57033046     0.04430
C4259       C  0.76482041  0.77919429  0.56532013    -0.11720
C4260       C  0.78107498  0.77698318  0.54951523     0.01930
C4261       C  0.77033054  0.75091798  0.53882021    -0.10240
C4262       C  0.74264519  0.72702068  0.54319325     0.04420
C4263       C  0.72655370  0.73019378  0.55907860    -0.09670
H4264       H  0.77339698  0.79912279  0.57390083     0.10020
H4265       H  0.78427066  0.74965662  0.52749481     0.07550
H4266       H  0.70495669  0.71328194  0.56277680     0.07390
C4267       C  0.72368660  0.50762790  0.99916005     0.04430
C4268       C  0.73414391  0.49143456  0.00918763    -0.11720
C4269       C  0.71897117  0.97297434  0.02574428     0.01930
C4270       C  0.69215616  0.97044147  0.03117510    -0.10240
C4271       C  0.68246393  0.48768129  0.02200142     0.04420
C4272       C  0.69871266  0.50680226  0.00654282    -0.09670
H4273       H  0.75381183  0.49314569  0.00351556     0.10020
H4274       H  0.67813641  0.95503051  0.04236263     0.07550
H4275       H  0.69090297  0.51992222  0.99947918     0.07390
C4276       C  0.73013839  0.92892002  0.06736336     0.04430
C4277       C  0.71876235  0.94326502  0.05620711    -0.11720
C4278       C  0.73088289  0.95669507  0.03731319     0.01930
C4279       C  0.75525707  0.95534134  0.03023024    -0.10240
C4280       C  0.76786349  0.94255275  0.04195276     0.04420
C4281       C  0.75488945  0.92914727  0.06033528    -0.09670
H4282       H  0.70092856  0.94426239  0.06298908     0.10020
H4283       H  0.76497507  0.96408584  0.01567794     0.07550
H4284       H  0.76430654  0.91905879  0.06943681     0.07390
C4285       C  0.56617611  0.59180504  0.39922119     0.04430
C4286       C  0.55533892  0.60655926  0.38786385    -0.11720
C4287       C  0.56740504  0.61904814  0.36874451     0.01930
C4288       C  0.59087245  0.61622290  0.36150796    -0.10240
C4289       C  0.60297721  0.60304034  0.37339960     0.04420
C4290       C  0.59001092  0.59043794  0.39194306    -0.09670
H4291       H  0.53815261  0.60890290  0.39452610     0.10020
H4292       H  0.60027977  0.62442608  0.34674910     0.07550
H4293       H  0.59905461  0.58011984  0.40117771     0.07390
C4294       C  0.56415396  0.67295196  0.33164099     0.04430
C4295       C  0.57385880  0.65642549  0.34195715    -0.11720
C4296       C  0.55657256  0.63610827  0.35704880     0.01930
C4297       C  0.52887320  0.63257324  0.36096477    -0.10240
C4298       C  0.51957767  0.64992616  0.35120165     0.04420
C4299       C  0.53776568  0.67046730  0.33697203    -0.09670
H4300       H  0.59507713  0.66008571  0.33813244     0.10020
H4301       H  0.51395752  0.61590576  0.37115642     0.07550
H4302       H  0.53085134  0.68393739  0.32930871     0.07390
C4303       C  0.89828089  0.59162611  0.23486690     0.04430
C4304       C  0.88711544  0.56581439  0.22394752    -0.11720
C4305       C  0.89869221  0.56485820  0.20477861     0.01930
C4306       C  0.92218376  0.59095608  0.19725081    -0.10240
C4307       C  0.93496189  0.61638938  0.20899281     0.04420
C4308       C  0.92255400  0.61641255  0.22773574    -0.09670
H4309       H  0.86945159  0.54685085  0.23079716     0.10020
H4310       H  0.93091284  0.59206493  0.18228025     0.07550
H4311       H  0.93193546  0.63565814  0.23709860     0.07390
C4312       C  0.89143943  0.00754328  0.16611705     0.04430
C4313       C  0.90239663  0.53374168  0.17674848    -0.11720
C4314       C  0.88682006  0.53683273  0.19310270     0.01930
C4315       C  0.85970650  0.01258169  0.19818875    -0.10240
C4316       C  0.84983025  0.98591611  0.18852750     0.04420
C4317       C  0.86595375  0.98348424  0.17283231    -0.09670
H4318       H  0.92281604  0.55147821  0.17177539     0.10020
H4319       H  0.84574864  0.01385423  0.20949053     0.07550
H4320       H  0.85781494  0.96292794  0.16513110     0.07390
C4321       C  0.77600085  0.84226959  0.32991558     0.04430
C4322       C  0.78874353  0.86721579  0.34223512    -0.11720
C4323       C  0.80681003  0.86994508  0.35904396     0.01930
C4324       C  0.80898999  0.84535120  0.36414860    -0.10240
C4325       C  0.79606142  0.82020913  0.35222356     0.04420
C4326       C  0.78127861  0.81977625  0.33454971    -0.09670
H4327       H  0.78365183  0.88383230  0.33871859     0.10020
H4328       H  0.82034524  0.84497585  0.37750612     0.07550
H4329       H  0.77316493  0.80131105  0.32448730     0.07390
C4330       C  0.85497439  0.92598222  0.39974588     0.04430
C4331       C  0.83879832  0.89977448  0.38917959    -0.11720
C4332       C  0.82324162  0.89794634  0.37108803     0.01930
C4333       C  0.82417057  0.92361935  0.36442072    -0.10240
C4334       C  0.83915995  0.94957088  0.37536748     0.04420
C4335       C  0.85503246  0.95063944  0.39256873    -0.09670
H4336       H  0.83833653  0.88113207  0.39575335     0.10020
H4337       H  0.81355556  0.92420088  0.35064788     0.07550
H4338       H  0.86697122  0.97077713  0.40079753     0.07390
C4339       C  0.68260362  0.58523492  0.73520603     0.04430
C4340       C  0.67101672  0.56117031  0.72238357    -0.11720
C4341       C  0.65434435  0.55951503  0.70519721     0.01930
C4342       C  0.65145901  0.58389438  0.70061852    -0.10240
C4343       C  0.66466616  0.60884121  0.71281881     0.04420
C4344       C  0.67925051  0.60875616  0.73040026    -0.09670
H4345       H  0.67530151  0.54400984  0.72611471     0.10020
H4346       H  0.63926380  0.58403337  0.68760600     0.07550
H4347       H  0.68851107  0.62739989  0.74036905     0.07390
C4348       C  0.61844594  0.00833733  0.66011152     0.04430
C4349       C  0.63123007  0.53329453  0.67215360    -0.11720
C4350       C  0.64066404  0.53276919  0.69213520     0.01930
C4351       C  0.63676099  0.00616807  0.69953222    -0.10240
C4352       C  0.62634727  0.98178107  0.68691038     0.04420
C4353       C  0.61725701  0.98318194  0.66720740    -0.09670
H4354       H  0.63343256  0.55277739  0.66556938     0.10020
H4355       H  0.64148046  0.00387452  0.71515746     0.07550
H4356       H  0.60864184  0.96442976  0.65739508     0.07390
C4357       C  0.77662394  0.50549105  0.49936192     0.04430
C4358       C  0.75126543  0.99210718  0.51114927    -0.11720
C4359       C  0.74730712  0.97205075  0.52672716     0.01930
C4360       C  0.77047753  0.96701781  0.53066637    -0.10240
C4361       C  0.79637110  0.98149080  0.51964630     0.04420
C4362       C  0.79910083  0.50012968  0.50383658    -0.09670
H4363       H  0.73508974  0.99800176  0.50799833     0.10020
H4364       H  0.76874612  0.95154409  0.54194273     0.07550
H4365       H  0.81879209  0.51031854  0.49488792     0.07390
C4366       C  0.69078010  0.92589579  0.56741814     0.04430
C4367       C  0.71727031  0.94180586  0.55703169    -0.11720
C4368       C  0.71918455  0.95617080  0.53842460     0.01930
C4369       C  0.69382150  0.95542114  0.53128117    -0.10240
C4370       C  0.66784824  0.94095147  0.54212357     0.04420
C4371       C  0.66612068  0.92527096  0.55952226    -0.09670
H4372       H  0.73630359  0.94345955  0.56402103     0.10020
H4373       H  0.69359651  0.96604161  0.51738679     0.07550
H4374       H  0.64555813  0.91338823  0.56731955     0.07390
C4375       C  0.85284532  0.76225988  0.23647111     0.04430
C4376       C  0.87799781  0.77559471  0.22456677    -0.11720
C4377       C  0.87882944  0.78920782  0.20586257     0.01930
C4378       C  0.85306678  0.78836837  0.19953361    -0.10240
C4379       C  0.82837850  0.77652346  0.21191361     0.04420
C4380       C  0.82848582  0.76346741  0.23031868    -0.09670
H4381       H  0.89677867  0.77566874  0.23060717     0.10020
H4382       H  0.85141444  0.79679233  0.18504463     0.07550
H4383       H  0.80950279  0.75416518  0.23998241     0.07390
C4384       C  0.93519691  0.84061463  0.16705692     0.04430
C4385       C  0.90884281  0.82345609  0.17711281    -0.11720
C4386       C  0.90660345  0.80554591  0.19380093     0.01930
C4387       C  0.93150059  0.80377563  0.19884379    -0.10240
C4388       C  0.95808301  0.82142585  0.18919660     0.04420
C4389       C  0.95996025  0.84108929  0.17443287    -0.09670
H4390       H  0.89039337  0.82412443  0.17134806     0.10020
H4391       H  0.93058072  0.78820059  0.20967796     0.07550
H4392       H  0.98077427  0.85558147  0.16762189     0.07390
C4393       C  0.93947090  0.67391783  0.99901284     0.04430
C4394       C  0.95759014  0.70101618  0.00793692    -0.11720
C4395       C  0.97227933  0.70353837  0.02643030     0.01930
C4396       C  0.97065072  0.67820454  0.03451281    -0.10240
C4397       C  0.95424509  0.65141286  0.02494710     0.04420
C4398       C  0.93727620  0.64920538  0.00818339    -0.09670
H4399       H  0.96056386  0.72000960  0.00004620     0.10020
H4400       H  0.98182003  0.67855136  0.04826060     0.07550
H4401       H  0.92336698  0.62809266  0.00166958     0.07390
C4402       C  0.52042379  0.76138684  0.06511893     0.04430
C4403       C  0.50838687  0.73637284  0.05315465    -0.11720
C4404       C  0.98867098  0.73214256  0.03730433     0.01930
C4405       C  0.98329764  0.75501869  0.03299227    -0.10240
C4406       C  0.49677435  0.78073838  0.04422451     0.04420
C4407       C  0.51488626  0.78356837  0.06041172    -0.09670
H4408       H  0.51406624  0.72021828  0.05694659     0.10020
H4409       H  0.96779796  0.75289878  0.02160118     0.07550
H4410       H  0.52441837  0.80300922  0.06960766     0.07390
C4411       C  0.62797750  0.65637988  0.85513515     0.04430
C4412       C  0.60113742  0.63826155  0.86442226    -0.11720
C4413       C  0.57704697  0.64216392  0.86114630     0.01930
C4414       C  0.58049602  0.66366370  0.84696967    -0.10240
C4415       C  0.60686105  0.68078750  0.83695571     0.04420
C4416       C  0.63073514  0.67820202  0.84205199    -0.09670
H4417       H  0.59920632  0.62051756  0.87343277     0.10020
H4418       H  0.56305963  0.66739193  0.84308211     0.07550
H4419       H  0.65122694  0.69206542  0.83461312     0.07390
C4420       C  0.02013240  0.58727512  0.89796360     0.04430
C4421       C  0.99506421  0.58616070  0.89077790    -0.11720
C4422       C  0.99628833  0.60497724  0.87553474     0.01930
C4423       C  0.02264767  0.62247140  0.86550331    -0.10240
C4424       C  0.54844554  0.62312194  0.87168686     0.04420
C4425       C  0.54671502  0.60600814  0.88870399    -0.09670
H4426       H  0.97464882  0.57201603  0.89822992     0.10020
H4427       H  0.02258506  0.63603031  0.85343409     0.07550
H4428       H  0.56578541  0.60720404  0.89527173     0.07390
O4429       O  0.81179106  0.57958080  0.81356253    -0.85190
O4430       O  0.89053101  0.71428560  0.87839073    -0.85350
O4431       O  0.86451313  0.67984807  0.81304686    -0.87020
O4432       O  0.89452117  0.63382790  0.85156374    -0.85780
O4433       O  0.87611134  0.60610127  0.88030056    -0.85370
O4434       O  0.82489843  0.68585747  0.81184973    -0.86740
O4435       O  0.90267279  0.69568657  0.85106965    -0.85220
O4436       O  0.85699198  0.61995553  0.81275432    -0.84800
Zr4437     Zr  0.86041423  0.64955422  0.84201800     2.84310
O4438       O  0.85987060  0.64952895  0.87770664    -1.06780
O4439       O  0.81338865  0.63123264  0.82961447    -1.07510
C4440       C  0.83732799  0.59525334  0.80582956     1.07920
C4441       C  0.90809210  0.71560347  0.86432723     1.07860
C4442       C  0.84937307  0.69005415  0.80504900     1.10850
C4443       C  0.89559270  0.61838670  0.86629838     1.08630
H4444       H  0.85368055  0.69811529  0.84824821     0.34180
O4445       O  0.84189977  0.67863655  0.85323879    -1.27730
H4446       H  0.83889661  0.59029468  0.84927456     0.33860
O4447       O  0.83127421  0.60226559  0.85396174    -1.29410
O4448       O  0.81398563  0.68306885  0.91699998    -0.85180
O4449       O  0.73406834  0.54992121  0.85090999    -0.86680
O4450       O  0.80864616  0.70945721  0.85105742    -0.85260
O4451       O  0.86020824  0.62902387  0.91828385    -0.85310
O4452       O  0.81483382  0.55212089  0.88056027    -0.85020
O4453       O  0.76345866  0.63218443  0.81273815    -0.84820
O4454       O  0.73053427  0.62886852  0.87818672    -0.85200
O4455       O  0.75968715  0.58300264  0.91709356    -0.84660
O4456       O  0.74890549  0.65676370  0.84960220    -0.85720
O4457       O  0.79884991  0.57626930  0.91842158    -0.84880
O4458       O  0.83674854  0.72017876  0.87970060    -0.85280
O4459       O  0.75886137  0.58707163  0.81234288    -0.85000
O4460       O  0.78687473  0.54207220  0.85200384    -0.84650
O4461       O  0.86775647  0.67514635  0.91815703    -0.85060
O4462       O  0.76740451  0.64497276  0.91617734    -0.85350
O4463       O  0.72201149  0.56854280  0.87823789    -0.86690
Zr4464     Zr  0.84136156  0.67864334  0.88887563     2.83100
Zr4465     Zr  0.78431160  0.58416465  0.84179065     2.83500
Zr4466     Zr  0.79476653  0.66016144  0.84095464     2.84090
Zr4467     Zr  0.82998680  0.60221529  0.88953959     2.83360
Zr4468     Zr  0.76475911  0.61363029  0.88826864     2.84220
O4469       O  0.78287411  0.58401283  0.87733532    -1.07260
O4470       O  0.79434588  0.66073663  0.87650683    -1.06770
C4471       C  0.78778077  0.66875710  0.92380164     1.07890
C4472       C  0.71611626  0.54914442  0.86445476     1.10510
C4473       C  0.82386119  0.72646736  0.86568462     1.08070
C4474       C  0.87127844  0.65476991  0.92570422     1.08430
C4475       C  0.79942484  0.53528269  0.86591488     1.08010
C4476       C  0.75376487  0.60656273  0.80534270     1.07560
C4477       C  0.72931097  0.64417219  0.86342590     1.07990
C4478       C  0.77442737  0.57242917  0.92516123     1.07500
H4479       H  0.74606888  0.60536882  0.84762748     0.34180
O4480       O  0.76547460  0.61303934  0.85275780    -1.28360
H4481       H  0.81136949  0.63167015  0.91550661     0.34200
O4482       O  0.81171623  0.63152344  0.90081876    -1.29750
O4483       O  0.92781225  0.91613123  0.98096486    -0.85190
O4484       O  0.98193276  0.54906036  0.04754206    -0.85350
O4485       O  0.89846418  0.97075259  0.01814484    -0.87020
O4486       O  0.97500439  0.51463887  0.98004062    -0.85780
O4487       O  0.52108261  0.52154687  0.98089492    -0.85370
O4488       O  0.88618825  0.94074873  0.04588461    -0.86740
O4489       O  0.95220090  0.53160889  0.01960047    -0.85220
O4490       O  0.92017006  0.95476627  0.98132674    -0.84800
Zr4491     Zr  0.94837220  0.98569645  0.00949922     2.84310
O4492       O  0.99579065  0.51417416  0.02142474    -1.06780
O4493       O  0.92938553  0.93811691  0.02101187    -1.07510
C4494       C  0.91670600  0.93091745  0.97384590     1.07920
C4495       C  0.96576910  0.55066770  0.03362050     1.07860
C4496       C  0.88045295  0.95411260  0.03182535     1.10850
C4497       C  0.00084927  0.52482106  0.97290188     1.08630
H4498       H  0.93603363  0.99315885  0.04996912     0.34180
O4499       O  0.94772774  0.98530386  0.04510159    -1.27730
H4500       H  0.97706430  0.96661256  0.98289232     0.33860
O4501       O  0.97688367  0.96669723  0.99758293    -1.29410
O4502       O  0.52462871  0.51648268  0.08617837    -0.85180
O4503       O  0.97226485  0.88417197  0.01870619    -0.86680
O4504       O  0.92469314  0.96453101  0.08515720    -0.85260
O4505       O  0.55933097  0.54389874  0.01939398    -0.85310
O4506       O  0.52908691  0.96785250  0.98162939    -0.85020
O4507       O  0.89423954  0.88796036  0.04704889    -0.84820
O4508       O  0.97724664  0.91789049  0.08619684    -0.85200
O4509       O  0.55331896  0.96028099  0.04734228    -0.84660
O4510       O  0.93145846  0.91142507  0.08618716    -0.85720
O4511       O  0.56565642  0.99047890  0.01961271    -0.84880
O4512       O  0.96530624  0.50951607  0.08624740    -0.85280
O4513       O  0.91234541  0.87721829  0.01882339    -0.85000
O4514       O  0.98922823  0.92249792  0.98079559    -0.84650
O4515       O  0.54277656  0.55406979  0.04875025    -0.85060
O4516       O  0.53121721  0.97732594  0.08652944    -0.85350
O4517       O  0.49796297  0.89986037  0.04855134    -0.86690
Zr4518     Zr  0.99520301  0.51327486  0.05705757     2.83100
Zr4519     Zr  0.95822570  0.91943926  0.00942414     2.83500
Zr4520     Zr  0.92850418  0.93769796  0.05659747     2.84090
Zr4521     Zr  0.52400319  0.99472681  0.00985651     2.83360
Zr4522     Zr  0.50434854  0.94714960  0.05731867     2.84220
O4523       O  0.50531665  0.94742761  0.02168355    -1.07260
O4524       O  0.97571401  0.96590677  0.06886436    -1.06770
C4525       C  0.53533403  0.50160580  0.09379383     1.07890
C4526       C  0.98583703  0.88139143  0.03397536     1.10510
C4527       C  0.94052222  0.98979313  0.09308084     1.08070
C4528       C  0.56178065  0.56023873  0.03457392     1.08430
C4529       C  0.51408282  0.94226015  0.97395161     1.08010
C4530       C  0.89305814  0.87072309  0.03283116     1.07560
C4531       C  0.95157854  0.90741154  0.09364718     1.07990
C4532       C  0.57094401  0.97645518  0.03332812     1.07500
H4533       H  0.94914187  0.89936122  0.04999085     0.34180
O4534       O  0.95719211  0.91890532  0.04506323    -1.28360
H4535       H  0.54323381  0.50583638  0.05054718     0.34200
O4536       O  0.52374797  0.99445177  0.04547490    -1.29750
O4537       O  0.86383187  0.68388895  0.41947895    -0.85190
O4538       O  0.81067965  0.55158279  0.35236365    -0.85350
O4539       O  0.81889848  0.58601045  0.42000646    -0.87020
O4540       O  0.89289919  0.62859263  0.37933240    -0.85780
O4541       O  0.90230997  0.65630331  0.35062548    -0.85370
O4542       O  0.77248423  0.57808849  0.42029421    -0.86740
O4543       O  0.84081311  0.56954611  0.38004931    -0.85220
O4544       O  0.87154902  0.64537891  0.41883337    -0.84800
Zr4545     Zr  0.84397535  0.61495578  0.39023949     2.84310
O4546       O  0.84306026  0.61498253  0.35470700    -1.06780
O4547       O  0.81491139  0.63295488  0.40244797    -1.07510
C4548       C  0.87487258  0.66901673  0.42664270     1.07920
C4549       C  0.82733455  0.55038517  0.36610058     1.07860
C4550       C  0.79334817  0.57527867  0.42777901     1.10850
C4551       C  0.90899709  0.64307053  0.36412123     1.08630
H4552       H  0.78875988  0.56608084  0.38382161     0.34180
O4553       O  0.79624624  0.58559551  0.37896470    -1.27730
H4554       H  0.88194036  0.67416740  0.38329354     0.33860
O4555       O  0.86227680  0.66237420  0.37863537    -1.29410
O4556       O  0.76593264  0.58326336  0.31408615    -0.85180
O4557       O  0.81850316  0.71544263  0.38156548    -0.86680
O4558       O  0.73274006  0.55390454  0.38197733    -0.85260
O4559       O  0.86482850  0.63577158  0.31411307    -0.85310
O4560       O  0.89638298  0.71120583  0.35258353    -0.85020
O4561       O  0.76264718  0.63024011  0.41957790    -0.84820
O4562       O  0.73484890  0.63451899  0.35302355    -0.85200
O4563       O  0.81145659  0.68414228  0.31621856    -0.84660
O4564       O  0.72364271  0.60474589  0.38080457    -0.85720
O4565       O  0.85674706  0.68924099  0.31468900    -0.84880
O4566       O  0.74938402  0.54476801  0.35230555    -0.85280
O4567       O  0.80307917  0.67549472  0.42040613    -0.85000
O4568       O  0.87873738  0.72298294  0.38065893    -0.84650
O4569       O  0.82613626  0.58944812  0.31484497    -0.85060
O4570       O  0.75857060  0.62202913  0.31471189    -0.85350
O4571       O  0.78846330  0.69716072  0.35392149    -0.86690
Zr4572     Zr  0.79562135  0.58626697  0.34330737     2.83100
Zr4573     Zr  0.83314765  0.68038806  0.39091048     2.83500
Zr4574     Zr  0.76725295  0.60374802  0.39115774     2.84090
Zr4575     Zr  0.86099587  0.66210945  0.34301080     2.83360
Zr4576     Zr  0.78492964  0.65154250  0.34405719     2.84220
O4577       O  0.83243611  0.68053365  0.35536670    -1.07260
O4578       O  0.76663425  0.60414876  0.35559180    -1.06770
C4579       C  0.75531759  0.59846684  0.30678602     1.07890
C4580       C  0.80220090  0.71674721  0.36755934     1.10510
C4581       C  0.73062936  0.53774802  0.36672558     1.08070
C4582       C  0.84991027  0.60976930  0.30722694     1.08430
C4583       C  0.89791271  0.72872737  0.36664532     1.08010
C4584       C  0.77841350  0.65558725  0.42734865     1.07560
C4585       C  0.71718908  0.61747069  0.36668456     1.07990
C4586       C  0.83686186  0.69435129  0.30834284     1.07500
H4587       H  0.77337612  0.65883873  0.38469229     0.34180
O4588       O  0.78531556  0.65134736  0.37967033    -1.28360
H4589       H  0.81356791  0.63367835  0.31668284     0.34200
O4590       O  0.81364982  0.63344616  0.33137386    -1.29750
O4591       O  0.73072601  0.87598350  0.68532285    -0.85190
O4592       O  0.59887187  0.79599485  0.75336972    -0.85350
O4593       O  0.65108529  0.87886000  0.71431569    -0.87020
O4594       O  0.69475575  0.84711462  0.75366260    -0.85780
O4595       O  0.70380024  0.80935694  0.75289321    -0.85370
O4596       O  0.62210994  0.86080950  0.68617573    -0.86740
O4597       O  0.63737338  0.84233130  0.75247753    -0.85220
O4598       O  0.71282171  0.88776880  0.71320481    -0.84800
Zr4599     Zr  0.66747502  0.84528462  0.72351212     2.84310
O4600       O  0.64931807  0.79814305  0.73520132    -1.06780
O4601       O  0.66730997  0.84513061  0.68793723    -1.07510
C4602       C  0.73192516  0.89374570  0.69911447     1.07920
C4603       C  0.61385187  0.82194898  0.76047083     1.07860
C4604       C  0.63468324  0.87988032  0.70029364     1.10850
C4605       C  0.70539239  0.83204318  0.76105525     1.08630
H4606       H  0.60805566  0.82410473  0.71692485     0.34180
O4607       O  0.61997112  0.81653959  0.71199848    -1.27730
H4608       H  0.71634054  0.83880898  0.71677488     0.33860
O4609       O  0.69676829  0.82694233  0.71195339    -1.29410
O4610       O  0.56561038  0.72078733  0.71378529    -0.85180
O4611       O  0.69896951  0.79959542  0.64730186    -0.86680
O4612       O  0.56957378  0.79920371  0.68484143    -0.85260
O4613       O  0.65241353  0.75251405  0.75432455    -0.85310
O4614       O  0.72743000  0.79312326  0.71323583    -0.85020
O4615       O  0.64710690  0.84788026  0.64830080    -0.84820
O4616       O  0.59999579  0.74643252  0.64799693    -0.85200
O4617       O  0.64372065  0.71478899  0.68707854    -0.84660
O4618       O  0.59443835  0.78630239  0.64717731    -0.85720
O4619       O  0.67318487  0.73272639  0.71506966    -0.84880
O4620       O  0.55999533  0.77353148  0.71464086    -0.85280
O4621       O  0.69253491  0.85344926  0.64752374    -0.85000
O4622       O  0.73700535  0.82045921  0.68428335    -0.84650
O4623       O  0.60582714  0.74419483  0.75336199    -0.85060
O4624       O  0.58318578  0.70884100  0.68575864    -0.85350
O4625       O  0.66107284  0.75287857  0.64867404    -0.86690
Zr4626     Zr  0.60184889  0.76948544  0.72401098     2.83100
Zr4627     Zr  0.69582172  0.82626560  0.67626742     2.83500
Zr4628     Zr  0.61995973  0.81592605  0.67638820     2.84090
Zr4629     Zr  0.67809160  0.77942021  0.72381892     2.83360
Zr4630     Zr  0.63011900  0.75011947  0.67693964     2.84220
O4631       O  0.67763468  0.77909187  0.68828175    -1.07260
O4632       O  0.60142993  0.76879546  0.68849134    -1.06770
C4633       C  0.56366969  0.70356709  0.69933974     1.07890
C4634       C  0.68444245  0.77340531  0.64064702     1.10510
C4635       C  0.55303701  0.78481844  0.69987572     1.08070
C4636       C  0.62662651  0.74220378  0.76165370     1.08430
C4637       C  0.74365556  0.80745668  0.69798261     1.08010
C4638       C  0.67272189  0.85835084  0.64066937     1.07560
C4639       C  0.59017182  0.76197478  0.64012024     1.07990
C4640       C  0.65946692  0.71321665  0.70135440     1.07500
H4641       H  0.64858280  0.79719514  0.64985704     0.34180
O4642       O  0.64854979  0.79723314  0.66454817    -1.28360
H4643       H  0.62233280  0.73078736  0.71775911     0.34200
O4644       O  0.63027205  0.75021587  0.71260188    -1.29750
O4645       O  0.64119297  0.74924889  0.14526897    -0.85190
O4646       O  0.72215292  0.88173917  0.21218300    -0.85350
O4647       O  0.69562337  0.84984111  0.14663668    -0.87020
O4648       O  0.72643010  0.80356116  0.18453856    -0.85780
O4649       O  0.70817679  0.77427398  0.21258908    -0.85370
O4650       O  0.65564022  0.85536533  0.14641570    -0.86740
O4651       O  0.73382204  0.86400053  0.18410895    -0.85220
O4652       O  0.68711059  0.78849075  0.14502831    -0.84800
Zr4653     Zr  0.69146898  0.81808928  0.17466196     2.84310
O4654       O  0.69180608  0.81781109  0.21025319    -1.06780
O4655       O  0.64399181  0.79974337  0.16316954    -1.07510
C4656       C  0.66663780  0.76469145  0.13742164     1.07920
C4657       C  0.73945910  0.88329215  0.19792942     1.07860
C4658       C  0.68021345  0.86018560  0.13933180     1.10850
C4659       C  0.72762183  0.78751935  0.19879748     1.08630
H4660       H  0.68471914  0.86658137  0.18188436     0.34180
O4661       O  0.67306708  0.84697226  0.18666849    -1.27730
H4662       H  0.67011189  0.75858328  0.18118560     0.33860
O4663       O  0.66254596  0.77046231  0.18618985    -1.29410
O4664       O  0.64652001  0.85034281  0.25056706    -0.85180
O4665       O  0.56478165  0.71856968  0.18353627    -0.86680
O4666       O  0.63889048  0.87729802  0.18594035    -0.85260
O4667       O  0.69306800  0.79681981  0.25082671    -0.85310
O4668       O  0.64672200  0.72070319  0.21234985    -0.85020
O4669       O  0.59535567  0.80267951  0.14620172    -0.84820
O4670       O  0.56218336  0.79638278  0.21383071    -0.85200
O4671       O  0.59393484  0.75092129  0.25178014    -0.84660
O4672       O  0.57975036  0.82425856  0.18510461    -0.85720
O4673       O  0.63269664  0.74342804  0.25064153    -0.84880
O4674       O  0.66866162  0.88835677  0.21370036    -0.85280
O4675       O  0.59014424  0.75733180  0.14514709    -0.85000
O4676       O  0.61663674  0.70896819  0.18465543    -0.84650
O4677       O  0.70067360  0.84300944  0.25083188    -0.85060
O4678       O  0.60056826  0.81117333  0.25108130    -0.85350
O4679       O  0.55393932  0.73556083  0.21233411    -0.86690
Zr4680     Zr  0.67318551  0.84637757  0.22219979     2.83100
Zr4681     Zr  0.61502575  0.75228381  0.17468881     2.83500
Zr4682     Zr  0.62554816  0.82840974  0.17529745     2.84090
Zr4683     Zr  0.66244753  0.77047581  0.22183252     2.83360
Zr4684     Zr  0.59667279  0.78063380  0.22247761     2.84220
O4685       O  0.61489727  0.75172724  0.21033674    -1.07260
O4686       O  0.62569095  0.82807632  0.21082182    -1.06770
C4687       C  0.62089569  0.83541683  0.25811028     1.07890
C4688       C  0.54739832  0.71703719  0.19778607     1.10510
C4689       C  0.65482008  0.89441186  0.20026897     1.08070
C4690       C  0.70413377  0.82257172  0.25833085     1.08430
C4691       C  0.62993615  0.70300705  0.19860278     1.08010
C4692       C  0.58589133  0.77749625  0.13818053     1.07560
C4693       C  0.56055832  0.81164531  0.19917679     1.07990
C4694       C  0.60928136  0.74023282  0.25871930     1.07500
H4695       H  0.57703947  0.77348658  0.18183199     0.34180
O4696       O  0.59650063  0.78095742  0.18680144    -1.28360
H4697       H  0.64439447  0.79917005  0.24878631     0.34200
O4698       O  0.64416430  0.79915100  0.23409638    -1.29750
O4699       O  0.48643542  0.51581402  0.58541982    -0.85190
O4700       O  0.90611857  0.88248294  0.51904809    -0.85350
O4701       O  0.90117710  0.95951966  0.54678754    -0.87020
O4702       O  0.93511452  0.91785421  0.58596387    -0.85780
O4703       O  0.97332214  0.90949837  0.58445555    -0.85370
O4704       O  0.91801420  0.48791265  0.51811449    -0.86740
O4705       O  0.89702354  0.89890082  0.54889426    -0.85220
O4706       O  0.94011393  0.97732063  0.58488166    -0.84800
Zr4707     Zr  0.93735372  0.94662400  0.55649306     2.84310
O4708       O  0.95555795  0.91786601  0.54394008    -1.06780
O4709       O  0.96535782  0.49410341  0.54474449    -1.07510
C4710       C  0.96045864  0.50105086  0.59259315     1.07920
C4711       C  0.89040757  0.87986633  0.53475508     1.07860
C4712       C  0.89887288  0.97424883  0.53206407     1.10850
C4713       C  0.95015861  0.90680731  0.59273168     1.08630
H4714       H  0.91677781  0.93852916  0.51601058     0.34180
O4715       O  0.93640553  0.94662461  0.52079599    -1.27730
H4716       H  0.98524475  0.96485439  0.58283315     0.33860
O4717       O  0.98472150  0.96474231  0.56814497    -1.29410
O4718       O  0.98220903  0.91485469  0.48005337    -0.85180
O4719       O  0.56245551  0.54664399  0.54750689    -0.86680
O4720       O  0.93497693  0.96830415  0.47996990    -0.85260
O4721       O  0.98888276  0.88722141  0.54470967    -0.85310
O4722       O  0.53700277  0.96350741  0.58223797    -0.85020
O4723       O  0.48073254  0.54412913  0.51814712    -0.84820
O4724       O  0.53542847  0.51621206  0.48027718    -0.85200
O4725       O  0.56679222  0.97021595  0.51774130    -0.84660
O4726       O  0.49476158  0.52052068  0.47985783    -0.85720
O4727       O  0.54891344  0.93999405  0.54543141    -0.84880
O4728       O  0.92877941  0.92265550  0.47901358    -0.85280
O4729       O  0.50961737  0.55407011  0.54624071    -0.85000
O4730       O  0.54141442  0.50846473  0.58371737    -0.84650
O4731       O  0.95972537  0.87630010  0.51652709    -0.85060
O4732       O  0.52792281  0.95450955  0.47956814    -0.85350
O4733       O  0.57420978  0.52945307  0.51923960    -0.86690
Zr4734     Zr  0.95502710  0.91836208  0.50830973     2.83100
Zr4735     Zr  0.51271739  0.51197663  0.55623619     2.83500
Zr4736     Zr  0.96513589  0.49411637  0.50904934     2.84090
Zr4737     Zr  0.50308509  0.93621695  0.55526600     2.83360
Zr4738     Zr  0.53149403  0.98461965  0.50841182     2.84220
O4739       O  0.53142860  0.98372908  0.54388182    -1.07260
O4740       O  0.98392975  0.96586543  0.49665844    -1.06770
C4741       C  0.50792873  0.92995804  0.47268146     1.07890
C4742       C  0.58020803  0.54813705  0.53361067     1.10510
C4743       C  0.92453433  0.94290569  0.47206010     1.08070
C4744       C  0.97342966  0.87037493  0.53015151     1.08430
C4745       C  0.54742436  0.98908669  0.58978056     1.08010
C4746       C  0.49701653  0.56105921  0.53243029     1.07560
C4747       C  0.51949728  0.52584820  0.47277553     1.07990
C4748       C  0.56822429  0.95388394  0.53165043     1.07500
H4749       H  0.52456137  0.53246395  0.51588896     0.34180
O4750       O  0.51269790  0.51287268  0.52064953    -1.28360
H4751       H  0.51056495  0.92542809  0.51463874     0.34200
O4752       O  0.50269586  0.93698411  0.51973781    -1.29750
C4753       C  0.99248564  0.52606432  0.93591605     0.24900
C4754       C  0.00742545  0.54057405  0.95356695    -0.23210
C4755       C  0.52843730  0.56995029  0.95254107     0.19810
C4756       C  0.53366929  0.58499454  0.93414751     0.24840
C4757       C  0.01817861  0.57066140  0.91651476    -0.23150
C4758       C  0.99795273  0.54093234  0.91748962     0.19740
F4759       F  0.98310406  0.52644546  0.90062772    -0.13110
F4760       F  0.97257245  0.99745646  0.93657781    -0.15470
F4761       F  0.55256915  0.61386382  0.93384501    -0.15480
F4762       F  0.54279681  0.58432953  0.96956130    -0.13110
C4763       C  0.93648177  0.61384898  0.85057341     0.24900
C4764       C  0.92146879  0.61502767  0.86785413    -0.23210
C4765       C  0.93166857  0.61340020  0.88717664     0.19810
C4766       C  0.95615833  0.61092302  0.88943532     0.24840
C4767       C  0.97075112  0.60870364  0.87232609    -0.23150
C4768       C  0.96077723  0.61038844  0.85278727     0.19740
F4769       F  0.97403615  0.60801276  0.83588810    -0.13110
F4770       F  0.92719588  0.61518715  0.83159421    -0.15470
F4771       F  0.96602248  0.61150409  0.90858577    -0.15480
F4772       F  0.91837959  0.61509583  0.90414621    -0.13110
C4773       C  0.59158659  0.68435157  0.80177208     0.24900
C4774       C  0.60895607  0.69814350  0.81884152    -0.23210
C4775       C  0.63143122  0.72697562  0.81713968     0.19810
C4776       C  0.63718698  0.74136001  0.79846075     0.24840
C4777       C  0.62036427  0.72720402  0.78131292    -0.23150
C4778       C  0.59713743  0.69887584  0.78317842     0.19740
F4779       F  0.58082495  0.68477254  0.76670383    -0.13110
F4780       F  0.57052693  0.65616672  0.80273367    -0.15470
F4781       F  0.65912875  0.76911968  0.79709298    -0.15480
F4782       F  0.64824119  0.74088173  0.83346489    -0.13110
C4783       C  0.66908567  0.65255286  0.84037552     0.24900
C4784       C  0.65290144  0.65156310  0.85757368    -0.23210
C4785       C  0.66162661  0.64734503  0.87686500     0.19810
C4786       C  0.68625043  0.64456831  0.87887153     0.24840
C4787       C  0.70309260  0.64686403  0.86169354    -0.23150
C4788       C  0.69422989  0.65109891  0.84246497     0.19740
F4789       F  0.70966320  0.65349555  0.82544893    -0.13110
F4790       F  0.66041390  0.65463348  0.82132811    -0.15470
F4791       F  0.69407104  0.64057931  0.89770424    -0.15480
F4792       F  0.64691400  0.64684161  0.89384735    -0.13110
C4793       C  0.57997645  0.76993887  0.10062560     0.24900
C4794       C  0.56859238  0.77136658  0.11957330    -0.23210
C4795       C  0.54101772  0.76835096  0.12055785     0.19810
C4796       C  0.52529265  0.76478158  0.10277962     0.24840
C4797       C  0.53671017  0.76357308  0.08378111    -0.23150
C4798       C  0.56393956  0.76567354  0.08280952     0.19740
F4799       F  0.57541076  0.76478591  0.06457841    -0.13110
F4800       F  0.60708715  0.77400764  0.09931379    -0.15470
F4801       F  0.49885495  0.76249043  0.10405985    -0.15480
F4802       F  0.52927341  0.76867650  0.13877399    -0.13110
C4803       C  0.97749991  0.81230830  0.05519680     0.24900
C4804       C  0.49086672  0.80441192  0.04014993    -0.23210
C4805       C  0.50085004  0.82087546  0.02221633     0.19810
C4806       C  0.49872198  0.84580426  0.01985645     0.24840
C4807       C  0.98660974  0.85437831  0.03542292    -0.23150
C4808       C  0.97515509  0.83694476  0.05273728     0.19740
F4809       F  0.96120639  0.84356832  0.06709485    -0.13110
F4810       F  0.96702070  0.79626177  0.07239247    -0.15470
F4811       F  0.50951177  0.86217816  0.00283543    -0.15480
F4812       F  0.51388392  0.81359292  0.00751274    -0.13110
C4813       C  0.98754925  0.60403716  0.03125914     0.24900
C4814       C  0.96293176  0.57666844  0.03359431    -0.23210
C4815       C  0.93568492  0.57436290  0.03546251     0.19810
C4816       C  0.93288174  0.59896138  0.03395195     0.24840
C4817       C  0.95736722  0.62625419  0.03057182    -0.23150
C4818       C  0.98480280  0.62863616  0.02966762     0.19740
F4819       F  0.00875530  0.65452287  0.02583984    -0.13110
F4820       F  0.01409694  0.60672850  0.02938024    -0.15470
F4821       F  0.90622529  0.59610573  0.03539552    -0.15480
F4822       F  0.91184911  0.54829840  0.03885240    -0.13110
C4823       C  0.90978791  0.68720643  0.97594121     0.24900
C4824       C  0.92359432  0.67101951  0.97966764    -0.23210
C4825       C  0.92093105  0.65064836  0.96502530     0.19810
C4826       C  0.90304532  0.64475610  0.94823020     0.24840
C4827       C  0.88958786  0.66107410  0.94417993    -0.23150
C4828       C  0.89366313  0.68284839  0.95808561     0.19740
F4829       F  0.88101131  0.69906917  0.95494216    -0.13110
F4830       F  0.91089973  0.70648056  0.98985350    -0.15470
F4831       F  0.89875917  0.62259325  0.93606806    -0.15480
F4832       F  0.93576774  0.63625802  0.96679029    -0.13110
C4833       C  0.49818841  0.81527998  0.17559348     0.24900
C4834       C  0.98351849  0.81766340  0.19257510    -0.23210
C4835       C  0.49396229  0.81728548  0.21218925     0.19810
C4836       C  0.51892954  0.81504273  0.21461240     0.24840
C4837       C  0.53411418  0.81388002  0.19743412    -0.23150
C4838       C  0.52347274  0.81425058  0.17795912     0.19740
F4839       F  0.53730723  0.81311721  0.16098379    -0.13110
F4840       F  0.98776810  0.81343957  0.15649532    -0.15470
F4841       F  0.52881441  0.81510334  0.23364975    -0.15480
F4842       F  0.98054864  0.81991508  0.22891253    -0.13110
C4843       C  0.92253157  0.87208625  0.14522931     0.24900
C4844       C  0.93708688  0.85638509  0.14783546    -0.23210
C4845       C  0.95438179  0.85609748  0.13176660     0.19810
C4846       C  0.95920876  0.87295146  0.11453965     0.24840
C4847       C  0.94517745  0.88902080  0.11196923    -0.23150
C4848       C  0.92613530  0.88782639  0.12725847     0.19740
F4849       F  0.91216013  0.90302571  0.12530249    -0.13110
F4850       F  0.90572770  0.87319259  0.16028001    -0.15470
F4851       F  0.47790672  0.87349575  0.10034847    -0.15480
F4852       F  0.96665561  0.83922008  0.13252104    -0.13110
C4853       C  0.85731003  0.72373076  0.25494593     0.24900
C4854       C  0.85161450  0.74670987  0.25541768    -0.23210
C4855       C  0.84256031  0.75327144  0.27374425     0.19810
C4856       C  0.83829825  0.73651421  0.29110941     0.24840
C4857       C  0.84342465  0.71321300  0.29049787    -0.23150
C4858       C  0.85343198  0.70722229  0.27242338     0.19740
F4859       F  0.85790808  0.68440886  0.27140816    -0.13110
F4860       F  0.86511274  0.71630820  0.23729311    -0.15470
F4861       F  0.82921899  0.74305671  0.30856864    -0.15480
F4862       F  0.83765021  0.77581434  0.27476022    -0.13110
C4863       C  0.75045220  0.75756883  0.20587039     0.24900
C4864       C  0.75334375  0.78409678  0.19980144    -0.23210
C4865       C  0.78111730  0.80767002  0.19618843     0.19810
C4866       C  0.80559012  0.80511705  0.19964255     0.24840
C4867       C  0.80263734  0.77863040  0.20612142    -0.23150
C4868       C  0.77474735  0.75467115  0.20853438     0.19740
F4869       F  0.77095187  0.72842067  0.21376293    -0.13110
F4870       F  0.72403248  0.73441994  0.20957414    -0.15470
F4871       F  0.83212460  0.82900356  0.19780494    -0.15480
F4872       F  0.78467565  0.83370009  0.19062152    -0.13110
C4873       C  0.70158733  0.89336362  0.58910033     0.24900
C4874       C  0.68860573  0.91055668  0.58689383    -0.23210
C4875       C  0.67224933  0.91197729  0.60322641     0.19810
C4876       C  0.66740927  0.89525031  0.62068186     0.24840
C4877       C  0.67958966  0.87737568  0.62262557    -0.23150
C4878       C  0.69752334  0.87734815  0.60693523     0.19740
F4879       F  0.71024234  0.86094418  0.60846779    -0.13110
F4880       F  0.71716998  0.89098838  0.57367455    -0.15470
F4881       F  0.65104969  0.89689929  0.63586528    -0.15480
F4882       F  0.66099945  0.92977995  0.60241231    -0.13110
C4883       C  0.61958315  0.97348802  0.54145140     0.24900
C4884       C  0.59445563  0.95148000  0.53233835    -0.23210
C4885       C  0.59412953  0.92656089  0.52522010     0.19810
C4886       C  0.61842186  0.92335143  0.52767634     0.24840
C4887       C  0.64338820  0.94524736  0.53705580    -0.23150
C4888       C  0.64394060  0.97046422  0.54370468     0.19740
F4889       F  0.66765429  0.99152694  0.55329114    -0.13110
F4890       F  0.62002374  0.99727801  0.54904749    -0.15470
F4891       F  0.61742311  0.89872082  0.52132522    -0.15480
F4892       F  0.57018266  0.90522437  0.51617539    -0.13110
C4893       C  0.80467838  0.55169907  0.47967712     0.24900
C4894       C  0.77957669  0.52452819  0.48191329    -0.23210
C4895       C  0.75821275  0.51490498  0.46667350     0.19810
C4896       C  0.76223137  0.53180443  0.44933758     0.24840
C4897       C  0.78782594  0.55843082  0.44678593    -0.23150
C4898       C  0.80884212  0.56837390  0.46224295     0.19740
F4899       F  0.83340608  0.59441027  0.46051993    -0.13110
F4900       F  0.82524083  0.56212514  0.49441355    -0.15470
F4901       F  0.74178892  0.52142226  0.43454274    -0.15480
F4902       F  0.73409919  0.98846707  0.46804883    -0.13110
C4903       C  0.82708011  0.95987598  0.51164390     0.24900
C4904       C  0.82093509  0.97718873  0.52434446    -0.23210
C4905       C  0.83976888  0.49235851  0.54045799     0.19810
C4906       C  0.86502307  0.49097231  0.54339757     0.24840
C4907       C  0.87153222  0.97432764  0.53028103    -0.23150
C4908       C  0.85208501  0.95822892  0.51474133     0.19740
F4909       F  0.85735947  0.94084860  0.50262538    -0.13110
F4910       F  0.80906483  0.94496736  0.49606847    -0.15470
F4911       F  0.88358025  0.50660641  0.55852529    -0.15480
F4912       F  0.83422938  0.50937217  0.55278421    -0.13110
C4913       C  0.65035513  0.95699536  0.70361548     0.24900
C4914       C  0.62612074  0.95513862  0.69370793    -0.23210
C4915       C  0.60298221  0.92764496  0.68854772     0.19810
C4916       C  0.60530816  0.90299692  0.69131889     0.24840
C4917       C  0.63040829  0.90516238  0.69996615    -0.23150
C4918       C  0.65215832  0.93218822  0.70709515     0.19740
F4919       F  0.67605497  0.93500226  0.71642533    -0.13110
F4920       F  0.67329555  0.98298944  0.70873138    -0.15470
F4921       F  0.58302974  0.87702412  0.68536948    -0.15480
F4922       F  0.57824210  0.92462067  0.68043859    -0.13110
C4923       C  0.60808381  0.99580899  0.62313876     0.24900
C4924       C  0.60336774  0.00727994  0.64103437    -0.23210
C4925       C  0.58128803  0.01425786  0.64145638     0.19810
C4926       C  0.56373048  0.00912247  0.62449464     0.24840
C4927       C  0.56760835  0.99659866  0.60692941    -0.23150
C4928       C  0.59015724  0.99029085  0.60624343     0.19740
F4929       F  0.59468641  0.97864232  0.58927359    -0.13110
F4930       F  0.62966887  0.98944224  0.62219418    -0.15470
F4931       F  0.54165122  0.01457521  0.62573692    -0.15480
F4932       F  0.57537472  0.02416078  0.65878031    -0.13110
C4933       C  0.68889422  0.66272984  0.70939614     0.24900
C4934       C  0.66370024  0.63540613  0.70760844    -0.23210
C4935       C  0.63757923  0.63404623  0.70222284     0.19810
C4936       C  0.63653977  0.65943527  0.69933010     0.24840
C4937       C  0.66132693  0.68661171  0.70240090    -0.23150
C4938       C  0.68759054  0.68802538  0.70719199     0.19740
F4939       F  0.71210206  0.71394601  0.70957544    -0.13110
F4940       F  0.71487968  0.66498139  0.71341072    -0.15470
F4941       F  0.61090521  0.65740024  0.69452932    -0.15480
F4942       F  0.61271328  0.60824604  0.70082014    -0.13110
C4943       C  0.72384515  0.58419483  0.75240219     0.24900
C4944       C  0.69891014  0.58667442  0.75365739    -0.23210
C4945       C  0.69107781  0.59342512  0.77240381     0.19810
C4946       C  0.70881789  0.59933914  0.78933072     0.24840
C4947       C  0.73456047  0.59859124  0.78776264    -0.23150
C4948       C  0.74155663  0.59002231  0.76945752     0.19740
F4949       F  0.76612960  0.58855832  0.76789870    -0.13110
F4950       F  0.73183971  0.57770377  0.73445681    -0.15470
F4951       F  0.70071318  0.60540667  0.80736631    -0.15480
F4952       F  0.66640853  0.59467946  0.77419758    -0.13110
C4953       C  0.86122388  0.50314665  0.36997215     0.24900
C4954       C  0.83664522  0.97526905  0.36999492    -0.23210
C4955       C  0.80921285  0.97243244  0.36712080     0.19810
C4956       C  0.80635918  0.49692203  0.36504103     0.24840
C4957       C  0.83076632  0.52469097  0.36619134    -0.23150
C4958       C  0.85825893  0.52762439  0.36834453     0.19740
F4959       F  0.88225877  0.55423828  0.36890087    -0.13110
F4960       F  0.88812605  0.50670761  0.37182428    -0.15470
F4961       F  0.77951177  0.49351966  0.36321330    -0.15480
F4962       F  0.78493225  0.94604228  0.36765660    -0.13110
C4963       C  0.86961707  0.94320912  0.43568795     0.24900
C4964       C  0.87128845  0.92797055  0.41875980    -0.23210
C4965       C  0.88993936  0.91645812  0.41984725     0.19810
C4966       C  0.90674813  0.92051694  0.43734636     0.24840
C4967       C  0.90578745  0.93678857  0.45386357    -0.23150
C4968       C  0.88710608  0.94815397  0.45271435     0.19740
F4969       F  0.88567354  0.96419506  0.46816624    -0.13110
F4970       F  0.85089110  0.95339803  0.43583534    -0.15470
F4971       F  0.92507925  0.90986545  0.43767944    -0.15480
F4972       F  0.89291375  0.90241559  0.40365273    -0.13110
C4973       C  0.77244409  0.76626328  0.35598657     0.24900
C4974       C  0.79714355  0.79382803  0.35826899    -0.23210
C4975       C  0.82260097  0.79559820  0.36599386     0.19810
C4976       C  0.82346861  0.77046307  0.37059846     0.24840
C4977       C  0.79961726  0.74306711  0.36642589    -0.23150
C4978       C  0.77390970  0.74128892  0.35952149     0.19740
F4979       F  0.74999124  0.71526273  0.35627248    -0.13110
F4980       F  0.74667706  0.76334834  0.35033316    -0.15470
F4981       F  0.84813700  0.77301835  0.37831384    -0.15480
F4982       F  0.84715355  0.82150272  0.36819277    -0.13110
C4983       C  0.73113022  0.81180596  0.30916197     0.24900
C4984       C  0.75647296  0.83865182  0.31238205    -0.23210
C4985       C  0.76342079  0.86095368  0.29814723     0.19810
C4986       C  0.74605749  0.85611902  0.28084832     0.24840
C4987       C  0.72173982  0.82872288  0.27717378    -0.23150
C4988       C  0.71434564  0.80679595  0.29170030     0.19740
F4989       F  0.69044909  0.78041286  0.28919353    -0.13110
F4990       F  0.72231135  0.79020957  0.32305920    -0.15470
F4991       F  0.75379729  0.87790836  0.26725189    -0.15480
F4992       F  0.78768213  0.88706955  0.30043554    -0.13110
C4993       C  0.94674658  0.51082431  0.12810720     0.24900
C4994       C  0.92891976  0.99647154  0.11133541    -0.23210
C4995       C  0.89936767  0.98750533  0.11231368     0.19810
C4996       C  0.88765417  0.99216513  0.12985368     0.24840
C4997       C  0.90506947  0.00523203  0.14707013    -0.23150
C4998       C  0.93486085  0.51497417  0.14593176     0.19740
F4999       F  0.95221617  0.52734997  0.16230421    -0.13110
F5000       F  0.97537352  0.51957629  0.12759227    -0.15470
F5001       F  0.85913552  0.98395718  0.12995653    -0.15480
F5002       F  0.88178282  0.97444640  0.09613517    -0.13110
C5003       C  0.79292698  0.90974659  0.20234776     0.24900
C5004       C  0.76760911  0.90985665  0.19695206    -0.23210
C5005       C  0.76924290  0.93554274  0.19022829     0.19810
C5006       C  0.79602613  0.96084444  0.18855962     0.24840
C5007       C  0.82149377  0.96063665  0.19343912    -0.23150
C5008       C  0.81977507  0.93499798  0.20053147     0.19740
F5009       F  0.84417401  0.93438770  0.20533413    -0.13110
F5010       F  0.79160175  0.88518356  0.20923793    -0.15470
F5011       F  0.79726787  0.98511756  0.18108883    -0.15480
F5012       F  0.74498841  0.93570875  0.18434330    -0.13110
C5013       C  0.85456152  0.61059326  0.26979414     0.24900
C5014       C  0.86065715  0.60302409  0.28880506    -0.23210
C5015       C  0.87786794  0.59007286  0.29007054     0.19810
C5016       C  0.88948044  0.58533537  0.27237048     0.24840
C5017       C  0.88388928  0.59353768  0.25337484    -0.23150
C5018       C  0.86616816  0.60592658  0.25215850     0.19740
F5019       F  0.86064527  0.61401828  0.23388358    -0.13110
F5020       F  0.83770564  0.62287378  0.26839882    -0.15470
F5021       F  0.90688389  0.57367977  0.27377388    -0.15480
F5022       F  0.88399495  0.58279591  0.30844592    -0.13110
C5023       C  0.96670342  0.67042039  0.20610118     0.24900
C5024       C  0.96238875  0.64250231  0.20263600    -0.23210
C5025       C  0.98567292  0.63983992  0.19517434     0.19810
C5026       C  0.51289179  0.66430851  0.19239356     0.24840
C5027       C  0.51774083  0.69183492  0.19772776    -0.23150
C5028       C  0.49419049  0.69475677  0.20403020     0.19740
F5029       F  0.49779427  0.72121345  0.20827466    -0.13110
F5030       F  0.94439608  0.67417067  0.21187026    -0.15470
F5031       F  0.53494014  0.66080080  0.18567388    -0.15480
F5032       F  0.98276794  0.61345901  0.19188139    -0.13110
C5033       C  0.97996263  0.64491396  0.37479949     0.24900
C5034       C  0.99042676  0.64620655  0.35492288    -0.23210
C5035       C  0.97340281  0.64546923  0.33833003     0.19810
C5036       C  0.94725145  0.64471561  0.34146305     0.24840
C5037       C  0.93693784  0.64394307  0.36128986    -0.23150
C5038       C  0.95331895  0.64354758  0.37795287     0.19740
F5039       F  0.94408604  0.64288845  0.39729458    -0.13110
F5040       F  0.99598867  0.64608873  0.39118224    -0.15470
F5041       F  0.93170490  0.64412764  0.32493229    -0.15480
F5042       F  0.98193088  0.64517210  0.31890392    -0.13110
C5043       C  0.59233340  0.69431153  0.27801888     0.24900
C5044       C  0.59968812  0.72345138  0.27770308    -0.23210
C5045       C  0.59834387  0.73669441  0.29576885     0.19810
C5046       C  0.58839166  0.72066279  0.31374708     0.24840
C5047       C  0.57986562  0.69117120  0.31392919    -0.23150
C5048       C  0.58238232  0.67822668  0.29601121     0.19740
F5049       F  0.57353079  0.64960163  0.29565180    -0.13110
F5050       F  0.59355536  0.68115207  0.26068984    -0.15470
F5051       F  0.58652754  0.73373883  0.33091851    -0.15480
F5052       F  0.60697030  0.76523876  0.29600219    -0.13110
C5053       C  0.57111428  0.58248742  0.43594078     0.24900
C5054       C  0.55322270  0.57782005  0.41896380    -0.23210
C5055       C  0.52357761  0.55740574  0.42040716     0.19810
C5056       C  0.51233454  0.54104678  0.43818225     0.24840
C5057       C  0.53064756  0.54459795  0.45465759    -0.23150
C5058       C  0.56001056  0.56581959  0.45350890     0.19740
F5059       F  0.57800265  0.57045346  0.46944583    -0.13110
F5060       F  0.59956318  0.60295578  0.43538197    -0.15470
F5061       F  0.98389889  0.52057380  0.43883681    -0.15480
F5062       F  0.00584067  0.55206948  0.40420518    -0.13110
C5063       C  0.68255900  0.63551011  0.36132703     0.24900
C5064       C  0.68736392  0.61263965  0.36620922    -0.23210
C5065       C  0.66350157  0.58544296  0.37080631     0.19810
C5066       C  0.63558191  0.58159988  0.37139695     0.24840
C5067       C  0.63106879  0.60512522  0.36804801    -0.23150
C5068       C  0.65484565  0.63194233  0.36247528     0.19740
F5069       F  0.65174351  0.65537885  0.35953891    -0.13110
F5070       F  0.70499908  0.66195842  0.35661153    -0.15470
F5071       F  0.61298706  0.55495622  0.37566899    -0.15480
F5072       F  0.66718196  0.56254704  0.37469526    -0.13110
C5073       C  0.84685905  0.97389615  0.02766440     0.24900
C5074       C  0.85102895  0.95039303  0.03166721    -0.23210
C5075       C  0.82687636  0.92350428  0.03636724     0.19810
C5076       C  0.79944039  0.92044185  0.03817241     0.24840
C5077       C  0.79564705  0.94451300  0.03594716    -0.23150
C5078       C  0.81955043  0.97115072  0.03011698     0.19740
F5079       F  0.81697931  0.99502658  0.02805263    -0.13110
F5080       F  0.86950485  0.99998987  0.02246728    -0.15470
F5081       F  0.77660794  0.89395047  0.04247632    -0.15480
F5082       F  0.82980914  0.90005828  0.03918399    -0.13110
C5083       C  0.73313375  0.91841838  0.10412960     0.24900
C5084       C  0.71634784  0.91349369  0.08651352    -0.23210
C5085       C  0.68689537  0.89213970  0.08688261     0.19810
C5086       C  0.67477029  0.87529868  0.10433758     0.24840
C5087       C  0.69202169  0.87934862  0.12153758    -0.23150
C5088       C  0.72113752  0.90134119  0.12141774     0.19740
F5089       F  0.73796332  0.90634386  0.13812116    -0.13110
F5090       F  0.76127720  0.93968901  0.10453320    -0.15470
F5091       F  0.64662849  0.85399941  0.10404759    -0.15480
F5092       F  0.67026820  0.88653313  0.07000295    -0.13110
C5093       C  0.71974879  0.52184844  0.96343987     0.24900
C5094       C  0.73733200  0.52375105  0.98004665    -0.23210
C5095       C  0.76759632  0.54079476  0.97798134     0.19810
C5096       C  0.77984548  0.55584282  0.95985508     0.24840
C5097       C  0.76206667  0.55471666  0.94367262    -0.23150
C5098       C  0.73192744  0.53745128  0.94565226     0.19740
F5099       F  0.71409297  0.53525401  0.93016773    -0.13110
F5100       F  0.69059825  0.50437703  0.96418444    -0.15470
F5101       F  0.80903672  0.57249920  0.95848642    -0.15480
F5102       F  0.78535355  0.54380180  0.99371069    -0.13110
C5103       C  0.62439108  0.50473157  0.03721107     0.24900
C5104       C  0.59932379  0.97862668  0.03249503    -0.23210
C5105       C  0.60158261  0.95504907  0.02556739     0.19810
C5106       C  0.62874640  0.95773548  0.02286323     0.24840
C5107       C  0.65394113  0.48402257  0.02714113    -0.23150
C5108       C  0.65160769  0.50740965  0.03459606     0.19740
F5109       F  0.67569504  0.53287919  0.03905120    -0.13110
F5110       F  0.62243772  0.52762180  0.04411851    -0.15470
F5111       F  0.63053518  0.93521263  0.01500347    -0.15480
F5112       F  0.57750152  0.92993295  0.02043493    -0.13110
C5113       C  0.71514202  0.74031439  0.60477381     0.24900
C5114       C  0.72153193  0.75830672  0.58764187    -0.23210
C5115       C  0.71394411  0.77992225  0.58764910     0.19810
C5116       C  0.70096133  0.78407680  0.60474955     0.24840
C5117       C  0.69550677  0.76683515  0.62213380    -0.23150
C5118       C  0.70215945  0.74454402  0.62194099     0.19740
F5119       F  0.69743341  0.72789109  0.63870344    -0.13110
F5120       F  0.72278447  0.71963272  0.60522714    -0.15470
F5121       F  0.69348043  0.80484166  0.60433443    -0.15480
F5122       F  0.71925148  0.79708062  0.57109599    -0.13110
C5123       C  0.83153052  0.81257948  0.55964701     0.24900
C5124       C  0.80980067  0.80196887  0.54476118    -0.23210
C5125       C  0.81510157  0.81644078  0.52598381     0.19810
C5126       C  0.84168734  0.84156591  0.52234381     0.24840
C5127       C  0.86307656  0.85250761  0.53751443    -0.23150
C5128       C  0.85789967  0.83764800  0.55607509     0.19740
F5129       F  0.87853162  0.84744712  0.57076276    -0.13110
F5130       F  0.82707959  0.79867144  0.57773083    -0.15470
F5131       F  0.84601047  0.85595931  0.50448612    -0.15480
F5132       F  0.79408549  0.80697699  0.51159700    -0.13110
C5133       C  0.64137625  0.62555258  0.53661535     0.24900
C5134       C  0.66540404  0.62261079  0.53169937    -0.23210
C5135       C  0.66146195  0.59470999  0.52922129     0.19810
C5136       C  0.63378867  0.57045799  0.53000484     0.24840
C5137       C  0.60964343  0.57350979  0.53404723    -0.23150
C5138       C  0.61378328  0.60118246  0.53797926     0.19740
F5139       F  0.59083988  0.60485057  0.54175533    -0.13110
F5140       F  0.64421426  0.65211282  0.53864755    -0.15470
F5141       F  0.63057301  0.54400432  0.52655619    -0.15480
F5142       F  0.68438580  0.59100565  0.52543798    -0.13110
C5143       C  0.78332877  0.67076609  0.46365589     0.24900
C5144       C  0.76703995  0.66221076  0.44565985    -0.23210
C5145       C  0.73913653  0.65856864  0.44555642     0.19810
C5146       C  0.72766650  0.66331407  0.46327222     0.24840
C5147       C  0.74395995  0.67173992  0.48131818    -0.23150
C5148       C  0.77199736  0.67574553  0.48134263     0.19740
F5149       F  0.78766319  0.68271004  0.49880150    -0.13110
F5150       F  0.80928972  0.67217496  0.46449928    -0.15470
F5151       F  0.70048253  0.65927863  0.46293998    -0.15480
F5152       F  0.72294008  0.65017759  0.42833275    -0.13110
C5153       C  0.84348312  0.70644814  0.77045198     0.24900
C5154       C  0.86140712  0.70821166  0.78674419    -0.23210
C5155       C  0.89134560  0.72710322  0.78527299     0.19810
C5156       C  0.90328578  0.74327308  0.76766812     0.24840
C5157       C  0.88566611  0.74039334  0.75086435    -0.23150
C5158       C  0.85555276  0.72227136  0.75257176     0.19740
F5159       F  0.83795240  0.71883357  0.73663246    -0.13110
F5160       F  0.81445727  0.68835946  0.77143930    -0.15470
F5161       F  0.93224171  0.76183115  0.76708256    -0.15480
F5162       F  0.90914186  0.73014689  0.80100887    -0.13110
C5163       C  0.51506166  0.78760169  0.71955080     0.24900
C5164       C  0.52420110  0.78194373  0.70099751    -0.23210
C5165       C  0.00564142  0.77358037  0.68403982     0.19810
C5166       C  0.97788352  0.77012542  0.68588999     0.24840
C5167       C  0.96864665  0.77530865  0.70465529    -0.23150
C5168       C  0.98778146  0.78464937  0.72129805     0.19740
F5169       F  0.98011390  0.79124982  0.73934008    -0.13110
F5170       F  0.53286725  0.79658914  0.73598673    -0.15470
F5171       F  0.95978249  0.76085444  0.66964447    -0.15480
F5172       F  0.51396313  0.76770935  0.66599308    -0.13110
C5173       C  0.78155868  0.80803515  0.67546123     0.24900
C5174       C  0.77182108  0.80866147  0.69526731    -0.23210
C5175       C  0.78937214  0.81083011  0.71192440     0.19810
C5176       C  0.81655294  0.81333830  0.70872945     0.24840
C5177       C  0.82646234  0.81337754  0.68883741    -0.23150
C5178       C  0.80837563  0.81016944  0.67230911     0.19740
F5179       F  0.81649784  0.80868811  0.65296859    -0.13110
F5180       F  0.76481719  0.80480863  0.65900645    -0.15470
F5181       F  0.83360791  0.81680962  0.72502651    -0.15480
F5182       F  0.78075972  0.81167531  0.73122114    -0.13110
C5183       C  0.92819480  0.88770926  0.64760744     0.24900
C5184       C  0.91604007  0.85757911  0.64731206    -0.23210
C5185       C  0.91671968  0.84390422  0.62922168     0.19810
C5186       C  0.92875128  0.86008908  0.61150765     0.24840
C5187       C  0.94005145  0.89007946  0.61167466    -0.23150
C5188       C  0.94009477  0.90386737  0.62986799     0.19740
F5189       F  0.95146776  0.93295696  0.63035188    -0.13110
F5190       F  0.92811381  0.90134205  0.66500059    -0.15470
F5191       F  0.92805816  0.84636806  0.59396069    -0.15480
F5192       F  0.90437064  0.81471570  0.62848917    -0.13110
C5193       C  0.65441335  0.97179685  0.86528785     0.24900
C5194       C  0.63033784  0.97539545  0.86859652    -0.23210
C5195       C  0.63455189  0.50358202  0.86885126     0.19810
C5196       C  0.66238758  0.52759996  0.86697154     0.24840
C5197       C  0.68648680  0.52390222  0.86445853    -0.23150
C5198       C  0.68214934  0.49579732  0.86308742     0.19740
F5199       F  0.70502287  0.99155484  0.86096478    -0.13110
F5200       F  0.65143752  0.94505480  0.86555907    -0.15470
F5201       F  0.66583643  0.55452820  0.86767672    -0.15480
F5202       F  0.61174194  0.50788657  0.87119915    -0.13110
C5203       C  0.52099836  0.91249958  0.92265260     0.24900
C5204       C  0.55124072  0.92705955  0.91983855    -0.23210
C5205       C  0.56889927  0.94457153  0.93587716     0.19810
C5206       C  0.55679510  0.94915219  0.95337625     0.24840
C5207       C  0.52660602  0.93549268  0.95586124    -0.23150
C5208       C  0.50889568  0.91624040  0.94059962     0.19740
F5209       F  0.97973707  0.90179779  0.94262532    -0.13110
F5210       F  0.00295039  0.89561467  0.90768845    -0.15470
F5211       F  0.57484181  0.96681185  0.96807416    -0.15480
F5212       F  0.59812403  0.95725208  0.93479141    -0.13110
C5213       C  0.96403170  0.79458592  0.85743666     0.24900
C5214       C  0.98986222  0.79369209  0.85685984    -0.23210
C5215       C  0.98862620  0.76693033  0.85962019     0.19810
C5216       C  0.96207767  0.74155298  0.86237568     0.24840
C5217       C  0.93631112  0.74247648  0.86274196    -0.23150
C5218       C  0.93751088  0.76916124  0.86027084     0.19740
F5219       F  0.91278742  0.77028206  0.85916894    -0.13110
F5220       F  0.96427591  0.81975985  0.85409118    -0.15470
F5221       F  0.96150575  0.71603263  0.86462651    -0.15480
F5222       F  0.51320743  0.76534761  0.85952171    -0.13110
C5223       C  0.58926576  0.85912977  0.79824895     0.24900
C5224       C  0.57851103  0.83890518  0.81427237    -0.23210
C5225       C  0.58138924  0.81416462  0.81294488     0.19810
C5226       C  0.59326804  0.80897203  0.79559430     0.24840
C5227       C  0.60307027  0.82863850  0.77929476    -0.23150
C5228       C  0.60161507  0.85412107  0.78096920     0.19740
F5229       F  0.61065880  0.87338532  0.76538443    -0.13110
F5230       F  0.58633793  0.88291242  0.79878088    -0.15470
F5231       F  0.59528703  0.78466914  0.79474780    -0.15480
F5232       F  0.57235699  0.79475620  0.82844070    -0.13110
C5233       C  0.74783530  0.57633162  0.27225068     0.24900
C5234       C  0.73862469  0.58818709  0.28760313    -0.23210
C5235       C  0.71333794  0.58968317  0.28447023     0.19810
C5236       C  0.69674405  0.57805457  0.26678891     0.24840
C5237       C  0.70541397  0.56515095  0.25177297    -0.23150
C5238       C  0.73164827  0.56528722  0.25447363     0.19740
F5239       F  0.74160435  0.55449238  0.23988203    -0.13110
F5240       F  0.77274982  0.57561351  0.27437807    -0.15470
F5241       F  0.67145295  0.57806028  0.26489289    -0.15480
F5242       F  0.70387815  0.60105383  0.29898198    -0.13110
C5243       C  0.63279747  0.92630897  0.19978640     0.24900
C5244       C  0.65732160  0.92319005  0.20168502    -0.23210
C5245       C  0.68414460  0.94764764  0.20601949     0.19810
C5246       C  0.68643887  0.97462241  0.20864578     0.24840
C5247       C  0.66168557  0.97763345  0.20793173    -0.23150
C5248       C  0.63484872  0.95317285  0.20317264     0.19740
F5249       F  0.61031495  0.95480910  0.20281629    -0.13110
F5250       F  0.60650745  0.90299586  0.19581013    -0.15470
F5251       F  0.71304447  0.99787897  0.21192211    -0.15480
F5252       F  0.70829125  0.94547320  0.20769166    -0.13110
C5253       C  0.55756416  0.99656021  0.12651229     0.24900
C5254       C  0.55414314  0.51406976  0.11201902    -0.23210
C5255       C  0.56873326  0.54415318  0.11520757     0.19810
C5256       C  0.58653101  0.55642482  0.13206393     0.24840
C5257       C  0.58859586  0.53895785  0.14727222    -0.23150
C5258       C  0.57416476  0.50880991  0.14414215     0.19740
F5259       F  0.57504063  0.99099378  0.15848813    -0.13110
F5260       F  0.54369260  0.96744296  0.12418374    -0.15470
F5261       F  0.60185149  0.58569343  0.13338380    -0.15480
F5262       F  0.56576797  0.56207014  0.10206130    -0.13110
C5263       C  0.59656676  0.62154144  0.19983269     0.24900
C5264       C  0.62109387  0.61862261  0.19686843    -0.23210
C5265       C  0.64839368  0.64364897  0.19522588     0.19810
C5266       C  0.65103009  0.67096908  0.19591230     0.24840
C5267       C  0.62659211  0.67391235  0.19851054    -0.23150
C5268       C  0.59934038  0.64902880  0.20071981     0.19740
F5269       F  0.57549283  0.65136977  0.20373892    -0.13110
F5270       F  0.56992393  0.59776848  0.20150406    -0.15470
F5271       F  0.67727133  0.69459659  0.19267327    -0.15480
F5272       F  0.67231580  0.64163582  0.19148903    -0.13110
C5273       C  0.66745852  0.97271959  0.34323766     0.24900
C5274       C  0.65568735  0.95380504  0.35988285    -0.23210
C5275       C  0.66783083  0.96322489  0.37930907     0.19810
C5276       C  0.69196239  0.99090095  0.38184164     0.24840
C5277       C  0.70434078  0.50920939  0.36492572    -0.23150
C5278       C  0.69162778  0.49993478  0.34568541     0.19740
F5279       F  0.70236322  0.51749789  0.32918521    -0.13110
F5280       F  0.65530815  0.96492799  0.32449614    -0.15470
F5281       F  0.70387867  0.99932587  0.40059049    -0.15480
F5282       F  0.65699272  0.94533483  0.39561661    -0.13110
C5283       C  0.62804075  0.87716720  0.27892539     0.24900
C5284       C  0.61499413  0.84714519  0.27652556    -0.23210
C5285       C  0.59820797  0.82883326  0.29242586     0.19810
C5286       C  0.59640429  0.84043561  0.31103728     0.24840
C5287       C  0.61032600  0.87058719  0.31369476    -0.23150
C5288       C  0.62529806  0.88874098  0.29714596     0.19740
F5289       F  0.63706340  0.91781473  0.29842379    -0.13110
F5290       F  0.64330974  0.89542152  0.26350606    -0.15470
F5291       F  0.58195804  0.82214941  0.32661674    -0.15480
F5292       F  0.58453002  0.79972077  0.29027994    -0.13110
C5293       C  0.00814454  0.87502296  0.43719799     0.24900
C5294       C  0.52271834  0.89208310  0.42019213    -0.23210
C5295       C  0.53469855  0.92224397  0.42123324     0.19810
C5296       C  0.53096755  0.93491655  0.43869526     0.24840
C5297       C  0.51477956  0.91752386  0.45512862    -0.23150
C5298       C  0.00394921  0.88758015  0.45440938     0.19740
F5299       F  0.98927166  0.87040114  0.47043461    -0.13110
F5300       F  0.99784459  0.84608911  0.43713842    -0.15470
F5301       F  0.54180983  0.96392873  0.43909566    -0.15480
F5302       F  0.54875998  0.93928468  0.40501595    -0.13110
C5303       C  0.94737253  0.80965023  0.36877689     0.24900
C5304       C  0.97454444  0.81178124  0.37100626    -0.23210
C5305       C  0.97647240  0.78650982  0.37030252     0.19810
C5306       C  0.95149586  0.75949774  0.36827971     0.24840
C5307       C  0.92424426  0.75734377  0.36707183    -0.23150
C5308       C  0.92244247  0.78261503  0.36679324     0.19740
F5309       F  0.89657574  0.78110360  0.36433439    -0.13110
F5310       F  0.94498721  0.83376378  0.36879163    -0.15470
F5311       F  0.95375660  0.73531480  0.36857945    -0.16680
F5312       F  0.00232153  0.78782694  0.37284054    -0.13110
C5313       C  0.62521817  0.63435363  0.02321246     0.24900
C5314       C  0.64049339  0.64063146  0.04168487    -0.23210
C5315       C  0.63050039  0.61979311  0.05719857     0.19810
C5316       C  0.60516283  0.59341401  0.05453750     0.24840
C5317       C  0.58912227  0.58763555  0.03652651    -0.23150
C5318       C  0.59963511  0.60791951  0.02063753     0.19740
F5319       F  0.58458450  0.60257320  0.00300519    -0.13110
F5320       F  0.63431852  0.65434996  0.00810646    -0.15470
F5321       F  0.59659735  0.57312258  0.06935089    -0.15480
F5322       F  0.64525759  0.62512144  0.07497839    -0.13110
C5323       C  0.65478703  0.72875108  0.08587679     0.24900
C5324       C  0.68173424  0.73092183  0.08200264    -0.23210
C5325       C  0.70445410  0.74622329  0.09592037     0.19810
C5326       C  0.69992991  0.75807159  0.11364282     0.24840
C5327       C  0.67241367  0.75418513  0.11806208    -0.23150
C5328       C  0.64999591  0.73954638  0.10387774     0.19740
F5329       F  0.62317692  0.73540075  0.10746197    -0.13110
F5330       F  0.63277602  0.71575143  0.07230284    -0.15470
F5331       F  0.72203179  0.77184622  0.12704118    -0.15480
F5332       F  0.73059203  0.74833424  0.09300756    -0.13110
C5333       C  0.75494015  0.68088436  0.94374702     0.24900
C5334       C  0.78102520  0.68051884  0.94202889    -0.23210
C5335       C  0.80126573  0.69208283  0.95786237     0.19810
C5336       C  0.79599247  0.70434606  0.97484036     0.24840
C5337       C  0.77061269  0.70615286  0.97623141    -0.23150
C5338       C  0.74985209  0.69382231  0.96064093     0.19740
F5339       F  0.72522847  0.69527655  0.96131725    -0.13110
F5340       F  0.73495095  0.66985740  0.92867848    -0.15470
F5341       F  0.81576863  0.71425972  0.99010676    -0.15480
F5342       F  0.82610072  0.69104795  0.95708689    -0.13110
C5343       C  0.86955499  0.81813787  0.02417047     0.24900
C5344       C  0.86735379  0.84136019  0.03210644    -0.23210
C5345       C  0.84003494  0.83652718  0.03815755     0.19810
C5346       C  0.81509593  0.81014295  0.03416310     0.24840
C5347       C  0.81710807  0.78736955  0.02509687    -0.23150
C5348       C  0.84480257  0.79128947  0.02113594     0.19740
F5349       F  0.84801091  0.76917187  0.01415025    -0.13110
F5350       F  0.89573606  0.82135355  0.01938968    -0.15470
F5351       F  0.78898832  0.80759549  0.03815102    -0.15480
F5352       F  0.83721565  0.85773599  0.04714767    -0.13110
C5353       C  0.56063138  0.75888226  0.58718223     0.24900
C5354       C  0.54279966  0.72894154  0.58459997    -0.23210
C5355       C  0.53897014  0.71038612  0.60097915     0.19810
C5356       C  0.55418836  0.72121039  0.61903821     0.24840
C5357       C  0.57289196  0.75099626  0.62140447    -0.23150
C5358       C  0.57546584  0.76987751  0.60553266     0.19740
F5359       F  0.59336271  0.79881525  0.60741559    -0.13110
F5360       F  0.56454911  0.77734289  0.57171921    -0.15470
F5361       F  0.55034812  0.70250184  0.63433068    -0.15480
F5362       F  0.52012376  0.68163955  0.59961377    -0.13110
C5363       C  0.50038473  0.60592784  0.51656925     0.24900
C5364       C  0.50133980  0.59064893  0.53377879    -0.23210
C5365       C  0.50649872  0.60392519  0.55291806     0.19810
C5366       C  0.50984522  0.63121924  0.55501942     0.24840
C5367       C  0.50957418  0.64715073  0.53794650    -0.23150
C5368       C  0.50487925  0.63410225  0.51858678     0.19740
F5369       F  0.50520582  0.64865778  0.50157256    -0.13110
F5370       F  0.99580728  0.59393978  0.49776145    -0.15470
F5371       F  0.51212173  0.64131079  0.57421890    -0.15480
F5372       F  0.50723970  0.59005487  0.57004639    -0.13110
C5373       C  0.99452166  0.81510271  0.51619688     0.24900
C5374       C  0.97130396  0.78970280  0.52406955    -0.23210
C5375       C  0.94881445  0.79092898  0.53430516     0.19810
C5376       C  0.94952896  0.81731557  0.53656228     0.24840
C5377       C  0.97256720  0.84260715  0.52839733    -0.23150
C5378       C  0.99500411  0.84135859  0.51822273     0.19740
F5379       F  0.51675937  0.86543793  0.50954355    -0.13110
F5380       F  0.51598247  0.81419438  0.50576852    -0.15470
F5381       F  0.92756060  0.81813904  0.54632451    -0.15480
F5382       F  0.92587069  0.76642238  0.54163751    -0.13110
C5383       C  0.93266350  0.68738487  0.46696470     0.24900
C5384       C  0.92517364  0.70190296  0.48151007    -0.23210
C5385       C  0.90024832  0.70397615  0.47820022     0.19810
C5386       C  0.88479577  0.69421255  0.46012219     0.24840
C5387       C  0.89215652  0.67978898  0.44554397    -0.23150
C5388       C  0.91592845  0.67590321  0.44933963     0.19740
F5389       F  0.92402350  0.66252721  0.43545223    -0.13110
F5390       F  0.95697316  0.68559948  0.46920351    -0.15470
F5391       F  0.86273534  0.69930606  0.45683000    -0.15480
F5392       F  0.89095351  0.71595167  0.49238822    -0.13110
C5393       C  0.85436801  0.80584326  0.87709649     0.24900
C5394       C  0.83053165  0.80957729  0.87322790    -0.23210
C5395       C  0.80515806  0.78620968  0.86510523     0.19810
C5396       C  0.80343099  0.75952911  0.86164779     0.24840
C5397       C  0.82665804  0.75541426  0.86686592    -0.23150
C5398       C  0.85213412  0.77893254  0.87455507     0.19740
F5399       F  0.87488080  0.77584219  0.88005091    -0.13110
F5400       F  0.87990691  0.82821406  0.88363111    -0.15470
F5401       F  0.77830597  0.73720479  0.85451964    -0.15480
F5402       F  0.78138431  0.78856511  0.86161327    -0.13110
C5403       C  0.85428404  0.90296947  0.93674572     0.24900
C5404       C  0.86429577  0.89192710  0.92128651    -0.23210
C5405       C  0.89237039  0.89602531  0.92264952     0.19810
C5406       C  0.90949094  0.90946923  0.93955197     0.24840
C5407       C  0.89918328  0.91948116  0.95534940    -0.23150
C5408       C  0.87175445  0.91685398  0.95365635     0.19740
F5409       F  0.86137853  0.92643826  0.96877927    -0.13110
F5410       F  0.82725262  0.89926424  0.93591472    -0.15470
F5411       F  0.93641079  0.91296266  0.94043772    -0.15480
F5412       F  0.90338028  0.88713747  0.90748968    -0.13110
C5413       C  0.71969813  0.85482478  0.81594144     0.24900
C5414       C  0.74875824  0.86221405  0.81795535    -0.23210
C5415       C  0.76304674  0.85811064  0.80140757     0.19810
C5416       C  0.74867777  0.84752103  0.78293273     0.24840
C5417       C  0.72003708  0.84129972  0.78073228    -0.23150
C5418       C  0.70545446  0.84453537  0.79740349     0.19740
F5419       F  0.67741770  0.83774355  0.79567411    -0.13110
F5420       F  0.70534746  0.85808968  0.83183142    -0.15470
F5421       F  0.76318587  0.84490842  0.76686461    -0.15480
F5422       F  0.79144161  0.86607966  0.80274895    -0.13110
C5423       C  0.79670783  0.96416782  0.87811094     0.24900
C5424       C  0.79274801  0.95195703  0.85852055    -0.23210
C5425       C  0.79145721  0.96761763  0.84175963     0.19810
C5426       C  0.79212343  0.49367076  0.84450750     0.24840
C5427       C  0.79674645  0.50638882  0.86391684    -0.23150
C5428       C  0.79923998  0.99142332  0.88074013     0.19740
F5429       F  0.80315191  0.50263931  0.89974693    -0.13110
F5430       F  0.79723283  0.94941967  0.89477226    -0.15470
F5431       F  0.78826902  0.50641375  0.82790071    -0.15480
F5432       F  0.78986454  0.95793543  0.82243161    -0.13110
C5433       C  0.51060297  0.62356613  0.69751230     0.24900
C5434       C  0.48566792  0.62318257  0.69020636    -0.23210
C5435       C  0.48601878  0.64936596  0.68732542     0.19810
C5436       C  0.51131812  0.67563760  0.69101759     0.24840
C5437       C  0.53647560  0.67597258  0.69764474    -0.23150
C5438       C  0.53583786  0.64981930  0.70123134     0.19740
F5439       F  0.55964184  0.64975588  0.70831893    -0.13110
F5440       F  0.51050781  0.59845648  0.70085863    -0.15470
F5441       F  0.51170556  0.70079289  0.68723516    -0.15480
F5442       F  0.96232256  0.64947546  0.68000732    -0.13110
C5443       C  0.92200809  0.52323653  0.63116348     0.24900
C5444       C  0.94309676  0.53579248  0.64656215    -0.23210
C5445       C  0.96895596  0.53509573  0.64447933     0.19810
C5446       C  0.97441876  0.52396315  0.62692220     0.24840
C5447       C  0.95379786  0.51207850  0.61131942    -0.23150
C5448       C  0.92718805  0.51116483  0.61381165     0.19740
F5449       F  0.90680855  0.49997533  0.59898242    -0.13110
F5450       F  0.89701882  0.52395545  0.63237429    -0.15470
F5451       F  0.50001036  0.52471917  0.62523210    -0.15480
F5452       F  0.48917847  0.54540060  0.65945467    -0.13110
C5453       C  0.78528903  0.92764631  0.69581133     0.24900
C5454       C  0.75733750  0.92323386  0.69898451    -0.23210
C5455       C  0.75394563  0.94719837  0.70282101     0.19810
C5456       C  0.77803953  0.97486475  0.70448404     0.24840
C5457       C  0.80615739  0.97910015  0.70271254    -0.23150
C5458       C  0.80950650  0.95528853  0.69781527     0.19740
F5459       F  0.83624350  0.95837634  0.69625344    -0.13110
F5460       F  0.78928982  0.90493753  0.69200685    -0.15470
F5461       F  0.77387507  0.99751050  0.70813558    -0.15480
F5462       F  0.72720460  0.94382128  0.70493617    -0.13110
C5463       C  0.85624985  0.60084642  0.77010990     0.24900
C5464       C  0.84457760  0.58379828  0.78765752    -0.23210
C5465       C  0.83927174  0.55531467  0.78761463     0.19810
C5466       C  0.84388338  0.54342181  0.77007844     0.24840
C5467       C  0.85418902  0.55991072  0.75217875    -0.23150
C5468       C  0.86098048  0.58897593  0.75247582     0.19740
F5469       F  0.87082697  0.60542914  0.73541563    -0.13110
F5470       F  0.86185826  0.62856716  0.76976294    -0.15470
F5471       F  0.83826447  0.51569574  0.77057869    -0.15480
F5472       F  0.83024800  0.53917600  0.80477051    -0.13110
loop_ 
_geom_bond_atom_site_label_1 
_geom_bond_atom_site_label_2 
_geom_bond_distance 
_geom_bond_site_symmetry_2 
_ccdc_geom_bond_type 
C1            C2   1.404       .  A
C1            C6   1.397       .  A
C1         C1363   1.487       .  S
C2            C3   1.420       .  A
C2            H7   1.078       .  S
C3            C4   1.417       .  A
C3           C12   1.515       .  S
C4            C5   1.406       .  A
C4            H8   1.079       .  S
C5            C6   1.399       .  A
C5         C2721   1.488   1_545  S
C6            H9   1.084       .  S
C10          C11   1.408       .  A
C10          C15   1.400       .  A
C10        C1340   1.491       .  S
C11          C12   1.422       .  A
C11          H16   1.078       .  S
C12          C13   1.417       .  A
C13          C14   1.400       .  A
C13          H17   1.078       .  S
C14          C15   1.394       .  A
C14        C4066   1.477       .  S
C15        H2754   1.084       .  S
H18        C2751   1.084       .  S
C19          C20   1.396       .  A
C19          C24   1.393       .  A
C19        C1310   1.475       .  S
C20          C21   1.412       .  A
C20          H25   1.079       .  S
C21          C22   1.418       .  A
C21          C30   1.504       .  S
C22          C23   1.406       .  A
C22          H26   1.079       .  S
C23          C24   1.401       .  A
C23        C1320   1.489       .  S
C24          H27   1.083       .  S
C28          C29   1.399       .  A
C28          C33   1.397       .  A
C28        C1300   1.480       .  S
C29          C30   1.412       .  A
C29          H34   1.078       .  S
C30          C31   1.417       .  A
C31          C32   1.403       .  A
C31          H35   1.079       .  S
C32          C33   1.399       .  A
C32        C1290   1.490       .  S
C33          H36   1.083       .  S
C37          C38   1.408       .  A
C37          C42   1.399       .  A
C37        C1280   1.490       .  S
C38          C39   1.420       .  A
C38          H43   1.077       .  S
C39          C40   1.420       .  A
C39        C2784   1.515       .  S
C40          C41   1.399       .  A
C40          H44   1.078       .  S
C41          C42   1.388       .  A
C41        C1270   1.474       .  S
C42          H45   1.084       .  S
C46          C47   1.399       .  A
C46          C51   1.394       .  A
C46        C1250   1.481       .  S
C47          C48   1.416   1_455  A
C47          H52   1.079       .  S
C48          C49   1.423       .  A
C48        C2775   1.515       .  S
C49          C50   1.411   1_655  A
C49          H53   1.075       .  S
C50          C51   1.400       .  A
C50        C1263   1.500       .  S
C51          H54   1.084       .  S
C55          C56   1.406   1_556  A
C55          C60   1.397       .  A
C55        C1233   1.491       .  S
C56          C57   1.420       .  A
C56          H61   1.077   1_554  S
C57          C58   1.415       .  A
C57          C66   1.511       .  S
C58          C59   1.404       .  A
C58          H62   1.079       .  S
C59          C60   1.398   1_554  A
C59        C1243   1.490       .  S
C60          H63   1.083       .  S
C64          C65   1.408       .  A
C64          C69   1.399       .  A
C64        C1220   1.492       .  S
C65          C66   1.422       .  A
C65          H70   1.080       .  S
C66          C67   1.414       .  A
C67          C68   1.400       .  A
C67          H71   1.079       .  S
C68          C69   1.394       .  A
C68        C1210   1.475       .  S
C69          H72   1.084       .  S
C73          C74   1.399       .  A
C73        C2814   1.396   1_455  A
C73        C1190   1.477       .  S
C74          C75   1.413       .  A
C74          H79   1.077       .  S
C75          C76   1.421       .  A
C75          C86   1.513       .  S
C76        C2813   1.402       .  A
C76          H80   1.075       .  S
C77          C78   1.393       .  A
C77        C2812   1.402       .  A
C77        C1200   1.481       .  S
C78        C2809   1.396       .  A
C78          H81   1.084       .  S
C82          C83   1.395       .  A
C82          C87   1.400       .  A
C82        C1183   1.482       .  S
C83          C84   1.394       .  A
C83          H88   1.084       .  S
C84          C85   1.402       .  A
C84        C1170   1.481       .  S
C85          C86   1.421       .  A
C85          H89   1.077       .  S
C86          C87   1.414       .  A
C87          H90   1.073       .  S
C91          C92   1.401       .  A
C91          C96   1.409       .  A
C91        C1153   1.497       .  S
C92          C93   1.393       .  A
C92          H97   1.083       .  S
C93          C94   1.404       .  A
C93        C1160   1.484       .  S
C94          C95   1.418       .  A
C94          H98   1.078       .  S
C95          C96   1.422       .  A
C95         C102   1.519       .  S
C96          H99   1.078       .  S
C100        C101   1.407       .  A
C100        C105   1.398       .  A
C100       C1133   1.493       .  S
C101        C102   1.421       .  A
C101        H106   1.078       .  S
C102        C103   1.419       .  A
C103        C104   1.407       .  A
C103        H107   1.077       .  S
C104        C105   1.398       .  A
C104       C2511   1.494   1_545  S
C105        H108   1.084       .  S
C109        C110   1.408       .  A
C109        C114   1.397       .  A
C109       C1120   1.492       .  S
C110        C111   1.424       .  A
C110        H115   1.079       .  S
C111        C112   1.419       .  A
C111        C120   1.520       .  S
C112        C113   1.408       .  A
C112        H116   1.079       .  S
C113        C114   1.397       .  A
C113       C3846   1.488   1_455  S
C114        H117   1.084       .  S
C118        C119   1.414       .  A
C118        C123   1.404       .  A
C118       C1100   1.504       .  S
C119        C120   1.423       .  A
C119        H124   1.079       .  S
C120        C121   1.416       .  A
C121        C122   1.403       .  A
C121        H125   1.079       .  S
C122        C123   1.399       .  A
C122       C1090   1.491       .  S
C123        H126   1.082       .  S
C127        C128   1.400       .  A
C127        C132   1.395       .  A
C127       C1080   1.477       .  S
C128        C129   1.417       .  A
C128        H133   1.077       .  S
C129        C130   1.420       .  A
C129        C138   1.516       .  S
C130        C131   1.407       .  A
C130        H134   1.079       .  S
C131        C132   1.401       .  A
C131       C1073   1.490       .  S
C132        H135   1.084       .  S
C136        C137   1.404       .  A
C136        C141   1.395       .  A
C136       C1053   1.485       .  S
C137        C138   1.419       .  A
C137        H142   1.078       .  S
C138        C139   1.422       .  A
C139        C140   1.403       .  A
C139        H143   1.077       .  S
C140        C141   1.393       .  A
C140       C1063   1.482       .  S
C141        H144   1.084       .  S
C145        C146   1.392       .  A
C145        C150   1.400       .  A
C145       C1043   1.474       .  S
C146        C147   1.396       .  A
C146        H151   1.084       .  S
C147        C148   1.406       .  A
C147       C1030   1.484       .  S
C148        C149   1.419       .  A
C148        H152   1.079       .  S
C149        C150   1.415       .  A
C149        C158   1.511       .  S
C150        H153   1.079       .  S
C154        C155   1.396       .  A
C154        C159   1.401       .  A
C154       C1010   1.477       .  S
C155        C156   1.397       .  A
C155        H160   1.085       .  S
C156        C157   1.403       .  A
C156       C1020   1.478       .  S
C157        C158   1.418       .  A
C157        H161   1.079       .  S
C158        C159   1.416       .  A
C159        H162   1.079       .  S
C163        C164   1.407   1_546  A
C163        C168   1.400   1_556  A
C163        C990   1.491       .  S
C164       C1533   1.419       .  A
C164        H169   1.075       .  S
C165        C166   1.416       .  A
C165       C1532   1.419       .  A
C165        C174   1.515       .  S
C166       C1535   1.400       .  A
C166        H170   1.078       .  S
C167        C168   1.393   1_565  A
C167       C1534   1.400       .  A
C167       C1003   1.476       .  S
C168        H171   1.084   1_554  S
C172        C173   1.401       .  A
C172        C177   1.395       .  A
C172        C980   1.482       .  S
C173        C174   1.418       .  A
C173        H178   1.077       .  S
C174        C175   1.419       .  A
C175        C176   1.406       .  A
C175        H179   1.077       .  S
C176        C177   1.398       .  A
C176        C973   1.488       .  S
C177        H180   1.083       .  S
C181        C182   1.404       .  A
C181        C186   1.396       .  A
C181        C950   1.484       .  S
C182        C183   1.417       .  A
C182        H187   1.080       .  S
C183        C184   1.418       .  A
C183        C192   1.512       .  S
C184        C185   1.408       .  A
C184        H188   1.079       .  S
C185        C186   1.397       .  A
C185        C963   1.491       .  S
C186        H189   1.083       .  S
C190        C191   1.403       .  A
C190        C195   1.393       .  A
C190        C943   1.479       .  S
C191        C192   1.418       .  A
C191        H196   1.079       .  S
C192        C193   1.419       .  A
C193        C194   1.407       .  A
C193        H197   1.080       .  S
C194        C195   1.398       .  A
C194       C3666   1.489   1_455  S
C195        H198   1.084       .  S
C199        C200   1.398       .  A
C199        C204   1.392       .  A
C199        C913   1.470       .  S
C200        C201   1.416       .  A
C200        H205   1.079       .  S
C201        C202   1.419       .  A
C201        C210   1.513       .  S
C202        C203   1.409       .  A
C202        H206   1.078       .  S
C203        C204   1.399       .  A
C203        C920   1.491       .  S
C204        H207   1.084       .  S
C208        C213   1.396       .  A
C208       C1577   1.405       .  A
C208        C893   1.484       .  S
C209        C210   1.419       .  A
C209       C1576   1.405       .  A
C209        H214   1.077       .  S
C210       C1579   1.418       .  A
C211        C212   1.401       .  A
C211       C1578   1.418       .  A
C211        H215   1.079       .  S
C212        C213   1.391       .  A
C212        C903   1.475       .  S
C213        H216   1.085       .  S
C217        C218   1.411       .  A
C217        C222   1.400       .  A
C217        C880   1.501       .  S
C218        C219   1.426       .  A
C218        H223   1.077       .  S
C219        C220   1.417       .  A
C219        C228   1.525       .  S
C220        C221   1.404       .  A
C220        H224   1.073       .  S
C221        C222   1.398       .  A
C221        C870   1.494       .  S
C222        H225   1.083       .  S
C226        C227   1.408       .  A
C226        C231   1.399       .  A
C226        C860   1.497       .  S
C227        C228   1.426       .  A
C227        H232   1.075       .  S
C228        C229   1.418       .  A
C229        C230   1.405       .  A
C229        H233   1.077       .  S
C230        C231   1.397       .  A
C230        C850   1.489       .  S
C231        H234   1.083       .  S
C235        C236   1.398       .  A
C235        C240   1.393       .  A
C235        C840   1.473       .  S
C236        C237   1.414       .  A
C236        H241   1.079       .  S
C237        C238   1.420       .  A
C237        C246   1.508       .  S
C238        C239   1.407       .  A
C238        H242   1.078       .  S
C239        C240   1.395       .  A
C239        C830   1.487       .  S
C240        H243   1.084       .  S
C244        C249   1.395       .  A
C244       C1613   1.401       .  A
C244        C820   1.476       .  S
C245        C246   1.412       .  A
C245       C1612   1.401       .  A
C245        H250   1.079       .  S
C246       C1615   1.416       .  A
C247        C248   1.405       .  A
C247       C1614   1.416       .  A
C247        H251   1.079       .  S
C248        C249   1.398       .  A
C248        C810   1.487       .  S
C249        H252   1.083       .  S
C253        C258   1.399       .  A
C253       C1622   1.406   1_545  A
C253        C790   1.488       .  S
C254        C255   1.419       .  A
C254       C1621   1.406       .  A
C254        H259   1.078       .  S
C255        C256   1.417       .  A
C255        C264   1.514       .  S
C256        C257   1.402       .  A
C256        H260   1.079       .  S
C257       C1626   1.396       .  A
C257        C800   1.474       .  S
C258       C1625   1.396   1_545  A
C258        H261   1.084       .  S
C262        C263   1.410       .  A
C262        C267   1.401       .  A
C262        C770   1.493       .  S
C263        C264   1.420       .  A
C263        H268   1.079       .  S
C264        C265   1.416       .  A
C265        C266   1.399       .  A
C265        H269   1.078       .  S
C266        C267   1.393       .  A
C266        C783   1.474       .  S
C267        H270   1.084       .  S
C271        C272   1.402       .  A
C271        C276   1.395       .  A
C271        C750   1.480       .  S
C272        C273   1.418       .  A
C272        H277   1.078       .  S
C273        C274   1.417       .  A
C273        C282   1.515       .  S
C274        C275   1.402       .  A
C274        H278   1.076       .  S
C275        C276   1.398       .  A
C275        C763   1.485       .  S
C276        H279   1.084       .  S
C280        C281   1.403       .  A
C280        C285   1.398       .  A
C280        C740   1.493       .  S
C281        C282   1.421       .  A
C281        H286   1.073       .  S
C282        C283   1.420       .  A
C283        C284   1.403       .  A
C283        H287   1.078       .  S
C284        C285   1.397       .  A
C284        C730   1.487       .  S
C285        H288   1.084       .  S
C289        C290   1.407   1_556  A
C289        C294   1.403   1_556  A
C289        C720   1.493       .  S
C290        C291   1.416       .  A
C290        H295   1.079       .  S
C291        C292   1.417       .  A
C291        C300   1.510       .  S
C292        C293   1.400       .  A
C292        H296   1.078       .  S
C293        C294   1.394       .  A
C293        C713   1.483       .  S
C294        H297   1.082       .  S
C298        C299   1.401       .  A
C298        C303   1.393       .  A
C298        C693   1.474       .  S
C299       C3036   1.417   1_455  A
C299        H304   1.078       .  S
C300        C301   1.418       .  A
C300       C3035   1.417       .  A
C301       C3038   1.402       .  A
C301        H305   1.080       .  S
C302        C303   1.395   1_655  A
C302       C3037   1.402       .  A
C302        C700   1.475       .  S
C303        H306   1.085       .  S
C307        C308   1.406       .  A
C307        C312   1.396       .  A
C307        C680   1.487       .  S
C308        C309   1.420       .  A
C308        H313   1.078       .  S
C309        C310   1.418       .  A
C309        C320   1.515       .  S
C310        C311   1.402       .  A
C310        H314   1.077       .  S
C311        C312   1.391       .  A
C311        C670   1.478       .  S
C312        H315   1.084       .  S
C316        C317   1.393       .  A
C316       C3057   1.402       .  A
C316        C653   1.481       .  S
C317        C318   1.398       .  A
C317        H322   1.084       .  S
C318        C319   1.405       .  A
C318        C663   1.490       .  S
C319       C3056   1.421       .  A
C319        H323   1.075       .  S
C320        C321   1.418       .  A
C320       C3055   1.421       .  A
C321       C3052   1.402       .  A
C321        H324   1.079       .  S
O325       Zr361   2.454       .  S
O325        C336   1.295       .  A
O326       Zr360   2.449       .  S
O326        C337   1.294       .  A
O327       Zr333   2.437       .  S
O327        C338   1.293       .  A
O328       Zr333   2.441       .  S
O328        C339   1.292       .  A
O329       Zr363   2.444       .  S
O329        C339   1.295       .  A
O330       Zr362   2.433       .  S
O330        C338   1.291       .  A
O331       Zr333   2.443       .  S
O331        C337   1.293       .  A
O332       Zr333   2.440       .  S
O332        C336   1.292       .  A
Zr333       O334   2.346       .  S
Zr333       O335   2.340       .  S
Zr333       O343   2.344       .  S
Zr333       O341   2.342       .  S
O334       Zr360   2.342       .  S
O334       Zr363   2.347       .  S
O335       Zr361   2.339       .  S
O335       Zr362   2.342       .  S
C336       C1360   1.480       .  S
C337       C1113   1.477       .  S
C338       C1050   1.475       .  S
C339        C660   1.485       .  S
H340        O341   0.965       .  S
O341       Zr360   2.342       .  S
O341       Zr362   2.342       .  S
H342        O343   0.966       .  S
O343       Zr361   2.334       .  S
O343       Zr363   2.339       .  S
O344       Zr360   2.441       .  S
O344        C367   1.294       .  A
O345       Zr361   2.449       .  S
O345        C368   1.294       .  A
O346       Zr362   2.447       .  S
O346        C369   1.294       .  A
O347       Zr363   2.433       .  S
O347        C370   1.292       .  A
O348       Zr363   2.452       .  S
O348        C371   1.294       .  A
O349       Zr362   2.445       .  S
O349        C372   1.293       .  A
O350       Zr364   2.437       .  S
O350        C373   1.291       .  A
O351       Zr364   2.428       .  S
O351        C374   1.291       .  A
O352       Zr362   2.432       .  S
O352        C373   1.292       .  A
O353       Zr363   2.446       .  S
O353        C374   1.294       .  A
O354       Zr360   2.430       .  S
O354        C369   1.291       .  A
O355       Zr361   2.415       .  S
O355        C372   1.287       .  A
O356       Zr361   2.418       .  S
O356        C371   1.289       .  A
O357       Zr360   2.448       .  S
O357        C370   1.294       .  A
O358       Zr364   2.442       .  S
O358        C367   1.292       .  A
O359       Zr364   2.441       .  S
O359        C368   1.293       .  A
Zr360       O366   2.342       .  S
Zr360       O378   2.340       .  S
Zr361       O365   2.337       .  S
Zr361       O376   2.340       .  S
Zr362       O366   2.337       .  S
Zr362       O376   2.335       .  S
Zr363       O365   2.341       .  S
Zr363       O378   2.344       .  S
Zr364       O365   2.345       .  S
Zr364       O366   2.335       .  S
Zr364       O378   2.343       .  S
Zr364       O376   2.335       .  S
C367       C1230   1.480       .  S
C368       C1093   1.480       .  S
C369       C1293   1.481       .  S
C370        C723   1.489       .  S
C371       C1323   1.485       .  S
C372        C843   1.460       .  S
C373        C683   1.483       .  S
C374        C993   1.478       .  S
H375        O376   0.965       .  S
H377        O378   0.966       .  S
O379       Zr415   2.426   1_556  S
O379        C390   1.291       .  A
O380       Zr414   2.432       .  S
O380        C391   1.290       .  A
O381       Zr387   2.437       .  S
O381        C392   1.291       .  A
O382      Zr1755   2.441   1_546  S
O382        C393   1.293       .  A
O383      Zr1785   2.434   1_546  S
O383       C3129   1.291       .  A
O384       Zr416   2.451       .  S
O384        C392   1.295       .  A
O385      Zr1755   2.452   1_545  S
O385        C391   1.294       .  A
O386       Zr387   2.438   1_556  S
O386        C390   1.291       .  A
Zr387      O1750   2.441   1_554  S
Zr387      O1753   2.452       .  S
Zr387       O389   2.343       .  S
Zr387       O397   2.349   1_554  S
Zr387       O395   2.340       .  S
Zr387      O1756   2.344       .  S
O388       Zr414   2.342       .  S
O388      Zr1755   2.344   1_545  S
O388      Zr4521   2.346   1_545  S
O389       Zr415   2.344       .  S
O389       Zr416   2.339       .  S
C390       C1303   1.469       .  S
C391        C710   1.472       .  S
C392        C970   1.483       .  S
C393        C650   1.466       .  S
C393       O3119   1.291       .  A
H394        O395   0.966       .  S
O395       Zr416   2.343       .  S
O395      Zr1782   2.344       .  S
H396        O397   0.966       .  S
O397       Zr415   2.337   1_556  S
O397      Zr3153   2.337   1_556  S
O398      Zr3150   2.428   1_455  S
O398        C421   1.291       .  A
O399       Zr415   2.431       .  S
O399        C422   1.290       .  A
O400       Zr416   2.433       .  S
O400        C423   1.292       .  A
O401      Zr1785   2.430   1_545  S
O401        C424   1.290       .  A
O402       Zr417   2.445   1_556  S
O402        C425   1.294       .  A
O403       Zr416   2.439       .  S
O403        C426   1.292       .  A
O404      Zr3154   2.424       .  S
O404        C427   1.290       .  A
O405       Zr418   2.435       .  S
O405        C428   1.291       .  A
O406       Zr416   2.449       .  S
O406        C427   1.294       .  A
O407       Zr417   2.434       .  S
O407        C428   1.291       .  A
O408       Zr414   2.439       .  S
O408       C1791   1.292   1_545  A
O409       Zr415   2.439       .  S
O409        C426   1.293       .  A
O410       Zr415   2.458   1_556  S
O410       C3161   1.295       .  A
O411      Zr3150   2.443   1_455  S
O411        C424   1.293       .  A
O412       Zr418   2.457       .  S
O412       C1789   1.295       .  A
O413       Zr418   2.446   1_655  S
O413       C3158   1.294       .  A
Zr414      O3134   2.428       .  S
Zr414      O3147   2.443       .  S
Zr414      O1763   2.344   1_545  S
Zr414      O1788   2.337   1_545  S
Zr414      O4536   2.336   1_545  S
Zr415       O430   2.343       .  S
Zr415      O3155   2.335       .  S
Zr416       O420   2.342       .  S
Zr416       O430   2.341       .  S
Zr417      O1751   2.434   1_554  S
Zr417      O1769   2.430       .  S
Zr417       O419   2.339       .  S
Zr417       O432   2.341       .  S
Zr417      O4492   2.346   1_455  S
Zr417      O3133   2.337   1_454  S
Zr418      O3140   2.424   1_455  S
Zr418       O419   2.342       .  S
Zr418       O432   2.335       .  S
Zr418      O3156   2.337   1_455  S
Zr418      O3166   2.339   1_455  S
O419      Zr3151   2.335   1_455  S
O420      Zr1782   2.337       .  S
O420      Zr3154   2.337       .  S
C421       C1150   1.490       .  S
C421       O1780   1.295   1_545  A
C422        C703   1.469       .  S
C422       O3149   1.294       .  A
C423        C890   1.474       .  S
C423       O1776   1.292       .  A
C424       C1213   1.468       .  S
C425       C1103   1.495       .  S
C425       O3146   1.295   1_455  A
C426       C1240   1.482       .  S
C427        C743   1.482       .  S
C428       C1000   1.463       .  S
H429        O430   0.965       .  S
O430      Zr3154   2.339       .  S
H431       O1800   0.965   1_545  S
O432      Zr4518   2.337   1_455  S
O432       H1799   0.965       .  S
O433       Zr469   2.438       .  S
O433        C444   1.293       .  A
O434       Zr468   2.436       .  S
O434        C445   1.292       .  A
O435       Zr441   2.437       .  S
O435        C446   1.292       .  A
O436       Zr441   2.444       .  S
O436        C447   1.293       .  A
O437       Zr471   2.431       .  S
O437        C447   1.291       .  A
O438       Zr470   2.451       .  S
O438        C446   1.294       .  A
O439       Zr441   2.443       .  S
O439        C445   1.293       .  A
O440       Zr441   2.440       .  S
O440        C444   1.292       .  A
Zr441       O442   2.336       .  S
Zr441       O443   2.341       .  S
Zr441       O451   2.342       .  S
Zr441       O449   2.348       .  S
O442       Zr468   2.335       .  S
O442       Zr471   2.333       .  S
O443       Zr469   2.342       .  S
O443       Zr470   2.345       .  S
C444       C1283   1.482       .  S
C445        C853   1.475       .  S
C446        C793   1.480       .  S
C447        C933   1.482       .  S
H448        O449   0.966       .  S
O449       Zr468   2.344       .  S
O449       Zr470   2.344       .  S
H450        O451   0.966       .  S
O451       Zr469   2.346       .  S
O451       Zr471   2.342       .  S
O452       Zr468   2.445       .  S
O452        C475   1.294       .  A
O453       Zr469   2.444       .  S
O453        C476   1.293       .  A
O454       Zr470   2.440       .  S
O454        C477   1.292       .  A
O455       Zr471   2.435       .  S
O455        C478   1.291       .  A
O456       Zr471   2.429       .  S
O456        C479   1.290       .  A
O457       Zr470   2.431       .  S
O457        C480   1.291       .  A
O458       Zr472   2.429       .  S
O458        C481   1.290       .  A
O459       Zr472   2.433       .  S
O459        C482   1.291       .  A
O460       Zr470   2.454       .  S
O460        C481   1.295       .  A
O461       Zr471   2.439       .  S
O461        C482   1.292       .  A
O462       Zr468   2.427       .  S
O462        C477   1.291       .  A
O463       Zr469   2.447       .  S
O463        C480   1.294       .  A
O464       Zr469   2.454       .  S
O464        C479   1.295       .  A
O465       Zr468   2.431       .  S
O465        C478   1.289       .  A
O466       Zr472   2.444       .  S
O466        C475   1.293       .  A
O467       Zr472   2.439       .  S
O467        C476   1.293       .  A
Zr468       O474   2.335       .  S
Zr468       O486   2.340       .  S
Zr469       O473   2.336       .  S
Zr469       O484   2.349       .  S
Zr470       O474   2.338       .  S
Zr470       O484   2.349       .  S
Zr471       O473   2.338       .  S
Zr471       O486   2.336       .  S
Zr472       O473   2.337       .  S
Zr472       O474   2.339       .  S
Zr472       O486   2.340       .  S
Zr472       O484   2.341       .  S
C475       C1130   1.483       .  S
C476        C873   1.484       .  S
C477       C1173   1.473       .  S
C478        C910   1.461       .  S
C479       C1203   1.472       .  S
C480       C1040   1.470       .  S
C481        C960   1.482       .  S
C482        C753   1.470       .  S
H483        O484   0.966       .  S
H485        O486   0.966       .  S
O487       Zr523   2.438       .  S
O487        C498   1.292       .  A
O488       Zr522   2.447       .  S
O488        C499   1.294       .  A
O489       Zr495   2.435       .  S
O489        C500   1.292       .  A
O490       Zr495   2.433       .  S
O490        C501   1.291       .  A
O491       Zr525   2.430       .  S
O491        C501   1.290       .  A
O492       Zr524   2.432       .  S
O492        C500   1.292       .  A
O493       Zr495   2.446       .  S
O493        C499   1.293       .  A
O494       Zr495   2.445       .  S
O494        C498   1.294       .  A
Zr495       O496   2.332       .  S
Zr495       O497   2.338       .  S
Zr495       O505   2.351       .  S
Zr495       O503   2.340       .  S
O496       Zr522   2.331       .  S
O496       Zr525   2.339       .  S
O497       Zr523   2.339       .  S
O497       Zr524   2.338       .  S
C498       C1350   1.479       .  S
C499       C1123   1.482       .  S
C500        C813   1.480       .  S
C501       C1313   1.464       .  S
H502        O503   0.966       .  S
O503       Zr522   2.335       .  S
O503       Zr524   2.341       .  S
H504        O505   0.966       .  S
O505       Zr523   2.346       .  S
O505       Zr525   2.350       .  S
O506       Zr522   2.437       .  S
O506        C529   1.291       .  A
O507       Zr523   2.436       .  S
O507        C530   1.292       .  A
O508       Zr524   2.439       .  S
O508        C531   1.291       .  A
O509       Zr525   2.448       .  S
O509        C532   1.294       .  A
O510       Zr525   2.457       .  S
O510        C533   1.295       .  A
O511       Zr524   2.438       .  S
O511        C534   1.293       .  A
O512       Zr526   2.436       .  S
O512        C535   1.293       .  A
O513       Zr526   2.432       .  S
O513        C536   1.291       .  A
O514       Zr524   2.429       .  S
O514        C535   1.290       .  A
O515       Zr525   2.446       .  S
O515        C536   1.294       .  A
O516       Zr522   2.432       .  S
O516        C531   1.292       .  A
O517       Zr523   2.442       .  S
O517        C534   1.293       .  A
O518       Zr523   2.430       .  S
O518        C533   1.291       .  A
O519       Zr522   2.425       .  S
O519        C532   1.289       .  A
O520       Zr526   2.440       .  S
O520        C529   1.292       .  A
O521       Zr526   2.442       .  S
O521        C530   1.292       .  A
Zr522       O528   2.335       .  S
Zr522       O540   2.345       .  S
Zr523       O527   2.340       .  S
Zr523       O538   2.337       .  S
Zr524       O528   2.338       .  S
Zr524       O538   2.339       .  S
Zr525       O527   2.336       .  S
Zr525       O540   2.349       .  S
Zr526       O527   2.338       .  S
Zr526       O528   2.337       .  S
Zr526       O540   2.344       .  S
Zr526       O538   2.344       .  S
C529       C1333   1.468       .  S
C530       C1013   1.470       .  S
C531       C1060   1.472       .  S
C532        C673   1.468       .  S
C533       C1070   1.485       .  S
C534        C773   1.483       .  S
C535       C1253   1.473       .  S
C536        C833   1.477       .  S
H537        O538   0.966       .  S
H539        O540   0.966       .  S
O541       Zr577   2.439       .  S
O541        C552   1.293       .  A
O542       Zr576   2.429       .  S
O542        C553   1.289       .  A
O543       Zr549   2.438       .  S
O543        C554   1.293       .  A
O544       Zr549   2.443       .  S
O544        C555   1.293       .  A
O545       Zr579   2.426       .  S
O545        C555   1.290       .  A
O546       Zr578   2.438       .  S
O546        C554   1.292       .  A
O547       Zr549   2.445       .  S
O547        C553   1.293       .  A
O548       Zr549   2.447       .  S
O548        C552   1.294       .  A
Zr549       O550   2.339       .  S
Zr549       O551   2.341       .  S
Zr549       O559   2.347       .  S
Zr549       O557   2.345       .  S
O550       Zr576   2.338       .  S
O550       Zr579   2.339       .  S
O551       Zr577   2.340       .  S
O551       Zr578   2.339       .  S
C552       C1223   1.485       .  S
C553        C900   1.465       .  S
C554        C983   1.472       .  S
C555        C760   1.476       .  S
H556        O557   0.966       .  S
O557       Zr576   2.335       .  S
O557       Zr578   2.339       .  S
H558        O559   0.966       .  S
O559       Zr577   2.344       .  S
O559       Zr579   2.343       .  S
O560       Zr576   2.420       .  S
O560        C583   1.290       .  A
O561       Zr577   2.439       .  S
O561        C584   1.292       .  A
O562       Zr578   2.444       .  S
O562        C585   1.293       .  A
O563       Zr579   2.448       .  S
O563        C586   1.295       .  A
O564       Zr579   2.438       .  S
O564        C587   1.292       .  A
O565       Zr578   2.436       .  S
O565        C588   1.291       .  A
O566       Zr580   2.446       .  S
O566        C589   1.293       .  A
O567       Zr580   2.453       .  S
O567        C590   1.295       .  A
O568       Zr578   2.431       .  S
O568        C589   1.292       .  A
O569       Zr579   2.429       .  S
O569        C590   1.289       .  A
O570       Zr576   2.440       .  S
O570        C585   1.293       .  A
O571       Zr577   2.443       .  S
O571        C588   1.292       .  A
O572       Zr577   2.450       .  S
O572        C587   1.294       .  A
O573       Zr576   2.449       .  S
O573        C586   1.294       .  A
O574       Zr580   2.431       .  S
O574        C583   1.291       .  A
O575       Zr580   2.442       .  S
O575        C584   1.293       .  A
Zr576       O582   2.340       .  S
Zr576       O594   2.339       .  S
Zr577       O581   2.343       .  S
Zr577       O592   2.343       .  S
Zr578       O582   2.335       .  S
Zr578       O592   2.340       .  S
Zr579       O581   2.342       .  S
Zr579       O594   2.336       .  S
Zr580       O581   2.342       .  S
Zr580       O582   2.343       .  S
Zr580       O594   2.343       .  S
Zr580       O592   2.345       .  S
C583       C1180   1.469       .  S
C584        C923   1.480       .  S
C585       C1140   1.480       .  S
C586        C883   1.489       .  S
C587       C1163   1.475       .  S
C588        C690   1.468       .  S
C589        C733   1.481       .  S
C590        C940   1.471       .  S
H591        O592   0.966       .  S
H593        O594   0.966       .  S
O595       Zr631   2.446   1_655  S
O595       C3342   1.294       .  A
O596       Zr630   2.447       .  S
O596        C607   1.293       .  A
O597       Zr603   2.440       .  S
O597        C608   1.292       .  A
O598       Zr603   2.438       .  S
O598        C609   1.292       .  A
O599      Zr3369   2.444       .  S
O599        C609   1.292       .  A
O600       Zr632   2.443       .  S
O600       C1976   1.293       .  A
O601       Zr603   2.430       .  S
O601        C607   1.291       .  A
O602       Zr603   2.442       .  S
O602       C1974   1.292       .  A
Zr603       O604   2.344       .  S
Zr603       O613   2.341       .  S
Zr603       O611   2.347       .  S
Zr603      O1973   2.340       .  S
O604       Zr630   2.342       .  S
O604      Zr3369   2.340       .  S
O605       Zr632   2.346       .  S
O605      Zr1971   2.340       .  S
O605      Zr3367   2.339   1_565  S
C606       C1343   1.483       .  S
C606       O3331   1.294       .  A
C606       O1970   1.292   1_545  A
C607       C1023   1.472       .  S
C608        C803   1.468       .  S
C608       O1968   1.293       .  A
C609       C1083   1.468       .  S
H610        O611   0.966       .  S
O611       Zr630   2.336       .  S
O611      Zr2000   2.345       .  S
H612        O613   0.966       .  S
O613      Zr4735   2.334       .  S
O613      Zr3369   2.347       .  S
O614       Zr630   2.422       .  S
O614       C3373   1.290       .  A
O615       Zr631   2.428       .  S
O615        C638   1.290       .  A
O616      Zr2000   2.436       .  S
O616        C639   1.292       .  A
O617      Zr3369   2.437       .  S
O617        C640   1.291       .  A
O618       Zr633   2.432       .  S
O618        C641   1.291       .  A
O619      Zr3368   2.445   1_545  S
O619        C642   1.293       .  A
O620      Zr2002   2.441   1_545  S
O620        C643   1.293       .  A
O621       Zr634   2.446       .  S
O621        C644   1.292       .  A
O622      Zr3368   2.437   1_545  S
O622        C643   1.292   1_655  A
O623       Zr633   2.442       .  S
O623        C644   1.292       .  A
O624       Zr630   2.460       .  S
O624        C639   1.296       .  A
O625       Zr631   2.429       .  S
O625        C642   1.292   1_455  A
O626       Zr631   2.437       .  S
O626       C2009   1.292   1_545  A
O627       Zr630   2.445       .  S
O627        C640   1.293       .  A
O628       Zr634   2.433       .  S
O628        C637   1.291       .  A
O629      Zr2002   2.448   1_545  S
O629        C638   1.294       .  A
Zr630       O636   2.344       .  S
Zr630      O3384   2.347       .  S
Zr631       O646   2.339       .  S
Zr631      O3341   2.339   1_445  S
Zr631      O4717   2.334   1_445  S
Zr631      O2003   2.336   1_545  S
Zr632      O1984   2.436       .  S
Zr632      O3355   2.445   1_565  S
Zr632      O3358   2.437   1_565  S
Zr632      O1979   2.345       .  S
Zr632      O2004   2.340       .  S
Zr632      O3382   2.345   1_565  S
Zr633      O3335   2.444   1_455  S
Zr633      O3353   2.437   1_455  S
Zr633       O635   2.336       .  S
Zr633       O648   2.336       .  S
Zr633      O3340   2.340   1_455  S
Zr633      O3349   2.347   1_455  S
Zr634      O1988   2.441       .  S
Zr634      O1997   2.448       .  S
Zr634       O635   2.332       .  S
Zr634       O648   2.342       .  S
Zr634      O3372   2.348   1_455  S
Zr634      O2014   2.337       .  S
O635      Zr1999   2.336       .  S
O636      Zr2000   2.340       .  S
O636      Zr3370   2.348       .  S
C637       C1193   1.467       .  S
C637       O3350   1.290   1_455  A
C638       C1033   1.476       .  S
C639        C863   1.488       .  S
C640       C1273   1.467       .  S
C641        C823   1.470       .  S
C641       O1994   1.292       .  A
C642       C1260   1.483   1_655  S
C643        C953   1.476       .  S
C644        C780   1.471       .  S
H645        O646   0.966       .  S
O646      Zr3368   2.345   1_445  S
O646      Zr2002   2.337   1_545  S
H647        O648   0.965       .  S
O648      Zr3366   2.347   1_455  S
C649        C650   1.402       .  A
C649        C654   1.396       .  A
C649       F2024   1.358   1_545  S
C650       C3387   1.403       .  A
C651        C652   1.400       .  A
C651       C3386   1.403       .  A
C651        F658   1.357       .  S
C652       C3389   1.408       .  A
C652        F657   1.358       .  S
C653        C654   1.407       .  A
C653       C3388   1.408       .  A
C654        F655   1.358       .  S
F656       C2017   1.358       .  S
C659        C660   1.410       .  A
C659        C664   1.408       .  A
C659        F666   1.357       .  S
C660        C661   1.402       .  A
C661        C662   1.388       .  A
C661        F668   1.349       .  S
C662        C663   1.407       .  A
C662        F667   1.359       .  S
C663        C664   1.410       .  A
C664        F665   1.357       .  S
C669        C670   1.407       .  A
C669        C674   1.397       .  A
C669        F676   1.358       .  S
C670        C671   1.407       .  A
C671        C672   1.398       .  A
C671        F678   1.358       .  S
C672        C673   1.404       .  A
C672        F677   1.358       .  S
C673        C674   1.403       .  A
C674        F675   1.358       .  S
C679        C680   1.408       .  A
C679        C684   1.391       .  A
C679        F686   1.359       .  S
C680        C681   1.407       .  A
C681        C682   1.402       .  A
C681        F688   1.358       .  S
C682        C683   1.410       .  A
C682        F687   1.357       .  S
C683        C684   1.407       .  A
C684        F685   1.357       .  S
C689        C690   1.405       .  A
C689        C694   1.401       .  A
C689        F696   1.356       .  S
C690        C691   1.401       .  A
C691        C692   1.396       .  A
C691        F698   1.356       .  S
C692        C693   1.405       .  A
C692        F697   1.358   1_455  S
C693        C694   1.404       .  A
C694        F695   1.358       .  S
C699        C704   1.394       .  A
C699       C3436   1.403       .  A
C699        F706   1.358       .  S
C700        C701   1.406   1_655  A
C700       C3435   1.403       .  A
C701        C702   1.402   1_455  A
C701        F708   1.358       .  S
C702       C3439   1.405       .  A
C702        F707   1.358   1_655  S
C703        C704   1.402       .  A
C703       C3438   1.405       .  A
C704        F705   1.355       .  S
C709        C710   1.403       .  A
C709        C714   1.399       .  A
C709        F716   1.358       .  S
C710        C711   1.404       .  A
C711        C712   1.400       .  A
C711        F718   1.356       .  S
C712        C713   1.407       .  A
C712        F717   1.358       .  S
C713        C714   1.408       .  A
C714        F715   1.358       .  S
C719        C720   1.412       .  A
C719        C724   1.405       .  A
C719        F726   1.357       .  S
C720        C721   1.407       .  A
C721        C722   1.389       .  A
C721        F728   1.358       .  S
C722        C723   1.406       .  A
C722        F727   1.351       .  S
C723        C724   1.410       .  A
C724        F725   1.356       .  S
C729        C734   1.388   1_655  A
C729       C3466   1.406       .  A
C729       F3472   1.357       .  S
C730       C3465   1.406       .  A
C730       C3467   1.409       .  A
C731        C732   1.407   1_655  A
C731       C3466   1.409       .  A
C731       F3474   1.357       .  S
C732        C733   1.410       .  A
C732        F737   1.358       .  S
C733        C734   1.405       .  A
C734        F735   1.356       .  S
F736       C3465   1.357       .  S
F738       C3467   1.357       .  S
C739        C740   1.412       .  A
C739        C744   1.406       .  A
C739        F746   1.357       .  S
C740        C741   1.409       .  A
C741        C742   1.388       .  A
C741        F748   1.357       .  S
C742        C743   1.405       .  A
C742       F3483   1.356       .  S
C743        C744   1.409       .  A
C744        F745   1.358       .  S
F747       C3478   1.356       .  S
C749        C750   1.407       .  A
C749        C754   1.399       .  A
C749        F756   1.358       .  S
C750        C751   1.407       .  A
C751        C752   1.397       .  A
C751        F758   1.358       .  S
C752        C753   1.404       .  A
C752        F757   1.358       .  S
C753        C754   1.404       .  A
C754        F755   1.358       .  S
C759        C760   1.406       .  A
C759        C764   1.394       .  A
C759        F766   1.355       .  S
C760        C761   1.405       .  A
C761        C762   1.400       .  A
C761        F768   1.357       .  S
C762        C763   1.410       .  A
C762        F767   1.358       .  S
C763        C764   1.406       .  A
C764        F765   1.358       .  S
C769        C770   1.409       .  A
C769        C774   1.402       .  A
C769        F776   1.358       .  S
C770        C771   1.410       .  A
C771        C772   1.396       .  A
C771        F778   1.358       .  S
C772        C773   1.406       .  A
C772        F777   1.358       .  S
C773        C774   1.408       .  A
C774        F775   1.356       .  S
C779        C780   1.402       .  A
C779        C784   1.398       .  A
C779        F786   1.356       .  S
C780        C781   1.405       .  A
C781        C782   1.401       .  A
C781        F788   1.354       .  S
C782        C783   1.403       .  A
C782        F787   1.358       .  S
C783        C784   1.404       .  A
C784        F785   1.358       .  S
C789        C790   1.408       .  A
C789        C794   1.399       .  A
C789        F796   1.358       .  S
C790        C791   1.409       .  A
C791        C792   1.402       .  A
C791       F2166   1.358   1_545  S
C792        C793   1.406       .  A
C792        F797   1.357       .  S
C793        C794   1.407       .  A
C794        F795   1.358       .  S
F798       C2159   1.358       .  S
C799        C800   1.403       .  A
C799        C804   1.397       .  A
C799        F806   1.358       .  S
C800       C2169   1.406       .  A
C801        C802   1.402       .  A
C801       C2168   1.406       .  A
C801        F808   1.358   1_565  S
C802       C2171   1.403       .  A
C802        F807   1.357   1_565  S
C803        C804   1.404       .  A
C803       C2170   1.403       .  A
C804        F805   1.357       .  S
C809        C810   1.408       .  A
C809        C814   1.396       .  A
C809        F816   1.358       .  S
C810        C811   1.410       .  A
C811        C812   1.397       .  A
C811        F818   1.358       .  S
C812        C813   1.407       .  A
C812        F817   1.358       .  S
C813        C814   1.407       .  A
C814        F815   1.356       .  S
C819        C820   1.407       .  A
C819        C824   1.398       .  A
C819        F826   1.358       .  S
C820        C821   1.405       .  A
C821        C822   1.393       .  A
C821        F828   1.358       .  S
C822        C823   1.402       .  A
C822        F827   1.352       .  S
C823        C824   1.405       .  A
C824        F825   1.357       .  S
C829        C830   1.412       .  A
C829        C834   1.397       .  A
C829        F836   1.358       .  S
C830        C831   1.406       .  A
C831        C832   1.399       .  A
C831        F838   1.358       .  S
C832        C833   1.408       .  A
C832        F837   1.356       .  S
C833        C834   1.403       .  A
C834        F835   1.358       .  S
C839        C840   1.406       .  A
C839        C844   1.398       .  A
C839        F846   1.358       .  S
C840        C841   1.406       .  A
C841        C842   1.392       .  A
C841        F848   1.358       .  S
C842        C843   1.400       .  A
C842        F847   1.356       .  S
C843        C844   1.403       .  A
C844        F845   1.358       .  S
C849        C854   1.399       .  A
C849       C2218   1.410   1_545  A
C849        F856   1.358       .  S
C850        C851   1.409       .  A
C850       C2217   1.410       .  A
C851       C2220   1.399       .  A
C851        F858   1.358       .  S
C852        C853   1.405   1_565  A
C852       C2219   1.399       .  A
C852        F857   1.358       .  S
C853        C854   1.405       .  A
C854        F855   1.358       .  S
C859        C860   1.409       .  A
C859        C864   1.396       .  A
C859        F866   1.358       .  S
C860        C861   1.411       .  A
C861        C862   1.408       .  A
C861        F868   1.358       .  S
C862        C863   1.409       .  A
C862        F867   1.358       .  S
C863        C864   1.407       .  A
C864        F865   1.357       .  S
C869        C870   1.411       .  A
C869        C874   1.396       .  A
C869        F876   1.358       .  S
C870        C871   1.410       .  A
C871        C872   1.401       .  A
C871        F878   1.357       .  S
C872        C873   1.406       .  A
C872        F877   1.354       .  S
C873        C874   1.404       .  A
C874        F875   1.355       .  S
C879        C880   1.412       .  A
C879        C884   1.398       .  A
C879        F886   1.358       .  S
C880        C881   1.411       .  A
C881        C882   1.407       .  A
C881        F888   1.357       .  S
C882        C883   1.410       .  A
C882        F887   1.358       .  S
C883        C884   1.406       .  A
C884        F885   1.359       .  S
C889        C894   1.402       .  A
C889       C2258   1.408   1_545  A
C889        F896   1.358       .  S
C890        C891   1.404       .  A
C890       C2257   1.408       .  A
C891        C892   1.393       .  A
C891        F898   1.359       .  S
C892        C893   1.409       .  A
C892        F897   1.359       .  S
C893       C2262   1.408       .  A
C894       C2261   1.408       .  A
C894        F895   1.358       .  S
C899        C900   1.402       .  A
C899        C904   1.399       .  A
C899        F906   1.357       .  S
C900        C901   1.403       .  A
C901        C902   1.397       .  A
C901        F908   1.357       .  S
C902        C903   1.404       .  A
C902        F907   1.358       .  S
C903        C904   1.407       .  A
C904        F905   1.358       .  S
C909        C910   1.401       .  A
C909        C914   1.395       .  A
C909        F916   1.358       .  S
C910        C911   1.404       .  A
C911        C912   1.400       .  A
C911        F918   1.358       .  S
C912        C913   1.404       .  A
C912        F917   1.357       .  S
C913        C914   1.404       .  A
C914        F915   1.358       .  S
C919        C920   1.411       .  A
C919       C3660   1.399       .  A
C919        F926   1.358       .  S
C920        C921   1.409       .  A
C921       C3658   1.399       .  A
C921        F928   1.358       .  S
C922        C923   1.406       .  A
C922       C3657   1.399   1_455  A
C922        F927   1.357       .  S
C923        C924   1.406   1_455  A
C924       C3655   1.399       .  A
C924        F925   1.358       .  S
C929        C930   1.409       .  A
C929        C934   1.404       .  A
C929        F936   1.358       .  S
C930        C931   1.408       .  A
C930       C2930   1.489       .  S
C931        C932   1.393       .  A
C931        F938   1.358       .  S
C932        C933   1.407       .  A
C932        F937   1.359       .  S
C933        C934   1.409       .  A
C934        F935   1.358       .  S
C939        C940   1.404       .  A
C939        C944   1.401       .  A
C939        F946   1.358       .  S
C940        C941   1.403       .  A
C941        C942   1.399       .  A
C941        F948   1.356       .  S
C942        C943   1.406       .  A
C942        F947   1.358       .  S
C943        C944   1.407       .  A
C944        F945   1.358       .  S
C949        C950   1.408       .  A
C949        C954   1.396       .  A
C949        F956   1.358       .  S
C950        C951   1.407       .  A
C951        C952   1.401       .  A
C951       F3694   1.358       .  S
C952        C953   1.407       .  A
C952       F3693   1.358   1_455  S
C953        C954   1.405       .  A
C954        F955   1.358       .  S
F957       C3688   1.358       .  S
F958       C3687   1.358       .  S
C959        C960   1.407       .  A
C959        C964   1.397       .  A
C959        F966   1.355       .  S
C960        C961   1.406       .  A
C961        C962   1.401       .  A
C961        F968   1.358       .  S
C962        C963   1.412       .  A
C962        F967   1.358       .  S
C963        C964   1.407       .  A
C964        F965   1.358       .  S
C969        C970   1.407       .  A
C969        C974   1.401       .  A
C969        F976   1.356       .  S
C970        C971   1.404       .  A
C971        C972   1.397       .  A
C971        F978   1.352       .  S
C972        C973   1.408       .  A
C972        F977   1.358       .  S
C973        C974   1.409       .  A
C974        F975   1.358       .  S
C979        C980   1.407       .  A
C979        C984   1.396       .  A
C979        F986   1.358       .  S
C980        C981   1.408       .  A
C981        C982   1.400       .  A
C981        F988   1.358       .  S
C982        C983   1.405       .  A
C982        F987   1.358       .  S
C983        C984   1.404       .  A
C984        F985   1.358       .  S
C989        C990   1.410       .  A
C989        C994   1.393       .  A
C989        F996   1.358       .  S
C990        C991   1.410       .  A
C991        C992   1.402       .  A
C991        F998   1.357       .  S
C992        C993   1.407       .  A
C992        F997   1.358       .  S
C993        C994   1.405       .  A
C994        F995   1.359       .  S
C999       C1004   1.399       .  A
C999       C2368   1.403   1_545  A
C999       F1006   1.358       .  S
C1000      C1001   1.402       .  A
C1000      C2367   1.403       .  A
C1001      C1002   1.397       .  A
C1001      F1008   1.358       .  S
C1002      C2371   1.405       .  A
C1002      F1007   1.358       .  S
C1003      C1004   1.406   1_565  A
C1003      C2370   1.405       .  A
C1004      F1005   1.358       .  S
C1009      C1010   1.407       .  A
C1009      C1014   1.401       .  A
C1009      F1016   1.358       .  S
C1010      C1011   1.404       .  A
C1011      C1012   1.396       .  A
C1011      F1018   1.358       .  S
C1012      C1013   1.404       .  A
C1012      F1017   1.356       .  S
C1013      C1014   1.404       .  A
C1014      F1015   1.358       .  S
C1019      C1020   1.403       .  A
C1019      C1024   1.395       .  A
C1019      F1026   1.358       .  S
C1020      C1021   1.408       .  A
C1021      C1022   1.403       .  A
C1021      F1028   1.358       .  S
C1022      C1023   1.405       .  A
C1022      F1027   1.358       .  S
C1023      C1024   1.405       .  A
C1024      F1025   1.358       .  S
C1029      C1030   1.407       .  A
C1029      C1034   1.399       .  A
C1029      F1036   1.358       .  S
C1030      C1031   1.408       .  A
C1031      C1032   1.397       .  A
C1031      F1038   1.358       .  S
C1032      C1033   1.405       .  A
C1032      F1037   1.356       .  S
C1033      C1034   1.407       .  A
C1034      F1035   1.358       .  S
C1039      C1040   1.403       .  A
C1039      C1044   1.397       .  A
C1039      F1046   1.352       .  S
C1040      C1041   1.404       .  A
C1041      C1042   1.397       .  A
C1041      F1048   1.358       .  S
C1042      C1043   1.406       .  A
C1042      F1047   1.358       .  S
C1043      C1044   1.403       .  A
C1044      F1045   1.358       .  S
C1049      C1050   1.408       .  A
C1049      C1054   1.402       .  A
C1049      F1056   1.358       .  S
C1050      C1051   1.404       .  A
C1051      C1052   1.393       .  A
C1051      F1058   1.359       .  S
C1052      C1053   1.409       .  A
C1052      F1057   1.358       .  S
C1053      C1054   1.407       .  A
C1054      F1055   1.358       .  S
C1059      C1060   1.402       .  A
C1059      C3800   1.390   1_455  A
C1059      F1066   1.359       .  S
C1060      C3797   1.408       .  A
C1061      C1062   1.405       .  A
C1061      C3796   1.408       .  A
C1061      F3804   1.358       .  S
C1062      C1063   1.407       .  A
C1062      F1067   1.357       .  S
C1063      C1064   1.408       .  A
C1064      C3795   1.390       .  A
C1064      F1065   1.358       .  S
F1068      C3797   1.358       .  S
C1069      C1070   1.408       .  A
C1069      C1074   1.395       .  A
C1069      F1076   1.359       .  S
C1070      C1071   1.408       .  A
C1071      C1072   1.406       .  A
C1071      F1078   1.358       .  S
C1072      C1073   1.410       .  A
C1072      F1077   1.358       .  S
C1073      C1074   1.406       .  A
C1074      F1075   1.358       .  S
C1079      C1080   1.404       .  A
C1079      C1084   1.399       .  A
C1079      F1086   1.358       .  S
C1080      C1081   1.406       .  A
C1081      C1082   1.400       .  A
C1081      F1088   1.358       .  S
C1082      C1083   1.403       .  A
C1082      F1087   1.358       .  S
C1083      C1084   1.405       .  A
C1084      F1085   1.358       .  S
C1089      C1090   1.410       .  A
C1089      C2462   1.400       .  A
C1089      F1096   1.358       .  S
C1090      C2459   1.409       .  A
C1091      C1092   1.402       .  A
C1091      C2458   1.409   1_545  A
C1091      F1098   1.358       .  S
C1092      C1093   1.407       .  A
C1092      F1097   1.358       .  S
C1093      C1094   1.405   1_545  A
C1094      C2457   1.400       .  A
C1094      F2463   1.358       .  S
F1095      C2462   1.358       .  S
C1099      C1100   1.412       .  A
C1099      C1104   1.407       .  A
C1099      F3842   1.357       .  S
C1100      C1101   1.413       .  A
C1101      C1102   1.400       .  A
C1101      F1108   1.358       .  S
C1102      C1103   1.408       .  A
C1102      F1107   1.358       .  S
C1103      C1104   1.410       .  A
C1104      F3841   1.356   1_455  S
F1105      C3840   1.356       .  S
F1106      C3835   1.357       .  S
C1109      C1110   1.406       .  A
C1109      C1114   1.401       .  A
C1109      F1116   1.358       .  S
C1110      C1111   1.411       .  A
C1110      C2849   1.488       .  S
C1111      C1112   1.400       .  A
C1111      F3854   1.358       .  S
C1112      C1113   1.403       .  A
C1112      F1117   1.358       .  S
C1113      C1114   1.406       .  A
C1114      F1115   1.354       .  S
F1118      C3847   1.358   1_455  S
C1119      C1120   1.409       .  A
C1119      C1124   1.405       .  A
C1119      F1126   1.358       .  S
C1120      C1121   1.409       .  A
C1121      C1122   1.399       .  A
C1121      F1128   1.358       .  S
C1122      C1123   1.405       .  A
C1122      F1127   1.358       .  S
C1123      C1124   1.408       .  A
C1124      F1125   1.358       .  S
C1129      C1130   1.406       .  A
C1129      C1134   1.397       .  A
C1129      F1136   1.358       .  S
C1130      C1131   1.408       .  A
C1131      C1132   1.405       .  A
C1131      F1138   1.358       .  S
C1132      C1133   1.409       .  A
C1132      F1137   1.358       .  S
C1133      C1134   1.410       .  A
C1134      F1135   1.358       .  S
C1139      C1140   1.407       .  A
C1139      C1144   1.403       .  A
C1139      F1146   1.358       .  S
C1140      C1141   1.404       .  A
C1141      C1142   1.396       .  A
C1141      F1148   1.357       .  S
C1142      C1143   1.411       .  A
C1142      F1147   1.358       .  S
C1143      C1144   1.410       .  A
C1143      C1472   1.494       .  S
C1144      F1145   1.357       .  S
C1149      C2518   1.410       .  A
C1149      C2522   1.407       .  A
C1149      F1156   1.358       .  S
C1150      C1151   1.409       .  A
C1150      C2517   1.410   1_545  A
C1151      C1152   1.393       .  A
C1151      F1158   1.357       .  S
C1152      C1153   1.409       .  A
C1152      F1157   1.359       .  S
C1153      C1154   1.412       .  A
C1154      C2517   1.407   1_545  A
C1154      F2523   1.357   1_545  S
F1155      C2522   1.357       .  S
C1159      C1160   1.409       .  A
C1159      C1164   1.403       .  A
C1159      F1166   1.358       .  S
C1160      C1161   1.406       .  A
C1161      C1162   1.397       .  A
C1161      F1168   1.358       .  S
C1162      C1163   1.402       .  A
C1162      F1167   1.354       .  S
C1163      C1164   1.405       .  A
C1164      F1165   1.356       .  S
C1169      C1170   1.406       .  A
C1169      C2542   1.390       .  A
C1169      F1176   1.357       .  S
C1170      C1171   1.407       .  A
C1171      C1172   1.404       .  A
C1171      F1178   1.358       .  S
C1172      C2541   1.408       .  A
C1172      F1177   1.357       .  S
C1173      C1174   1.404   1_545  A
C1173      C2540   1.408   1_545  A
C1174      C2537   1.390       .  A
C1174      F1175   1.359   1_565  S
C1179      C1180   1.403       .  A
C1179      C1184   1.390       .  A
C1179      F1186   1.359       .  S
C1180      C1181   1.405       .  A
C1181      C1182   1.397       .  A
C1181      F1188   1.356       .  S
C1182      C1183   1.409       .  A
C1182      F1187   1.358       .  S
C1183      C1184   1.409       .  A
C1184      F1185   1.357       .  S
C1189      C1194   1.390       .  A
C1189      C3926   1.405       .  A
C1189      F1196   1.358       .  S
C1190      C1191   1.408       .  A
C1190      C3925   1.405       .  A
C1191      C1192   1.397       .  A
C1191      F1198   1.358       .  S
C1192      C1193   1.405       .  A
C1192      F1197   1.358       .  S
C1193      C3930   1.405       .  A
C1194      C3929   1.405       .  A
C1194      F1195   1.359       .  S
C1199      C1200   1.406       .  A
C1199      C1204   1.398       .  A
C1199      F1206   1.358       .  S
C1200      C1201   1.407       .  A
C1201      C1202   1.399       .  A
C1201      F1208   1.358       .  S
C1202      C1203   1.405       .  A
C1202      F1207   1.358       .  S
C1203      C1204   1.402       .  A
C1204      F1205   1.353       .  S
C1209      C1210   1.407       .  A
C1209      C1214   1.401       .  A
C1209      F1216   1.358       .  S
C1210      C1211   1.403       .  A
C1211      C1212   1.394       .  A
C1211      F1218   1.358       .  S
C1212      C1213   1.403       .  A
C1212      F1217   1.355       .  S
C1213      C1214   1.404       .  A
C1214      F1215   1.357       .  S
C1219      C1220   1.409       .  A
C1219      C1224   1.396       .  A
C1219      F1226   1.358       .  S
C1220      C1221   1.410       .  A
C1221      C1222   1.404       .  A
C1221      F1228   1.357       .  S
C1222      C1223   1.409       .  A
C1222      F1227   1.358       .  S
C1223      C1224   1.407       .  A
C1224      F1225   1.357       .  S
C1229      C1230   1.408       .  A
C1229      C1234   1.405       .  A
C1229      F1236   1.357       .  S
C1230      C1231   1.402       .  A
C1231      C1232   1.393       .  A
C1231      F1238   1.357       .  S
C1232      C1233   1.410       .  A
C1232      F1237   1.358       .  S
C1233      C1234   1.409       .  A
C1234      F1235   1.357       .  S
C1239      C1240   1.406       .  A
C1239      C1244   1.397       .  A
C1239      F1246   1.358       .  S
C1240      C1241   1.407       .  A
C1241      C1242   1.398       .  A
C1241      F1248   1.353       .  S
C1242      C1243   1.408       .  A
C1242      F1247   1.358       .  S
C1243      C1244   1.411       .  A
C1244      F1245   1.358       .  S
C1249      C1250   1.405       .  A
C1249      C1254   1.401       .  A
C1249      F1256   1.358       .  S
C1250      C1251   1.407       .  A
C1251      C1252   1.391       .  A
C1251      F1258   1.355       .  S
C1252      C1253   1.403       .  A
C1252      F1257   1.359       .  S
C1253      C1254   1.409       .  A
C1254      F1255   1.358       .  S
C1259      C1260   1.411       .  A
C1259      C1264   1.409       .  A
C1259      F4002   1.358   1_455  S
C1260      C1261   1.403       .  A
C1261      C1262   1.386       .  A
C1261      F1268   1.359       .  S
C1262      C1263   1.413       .  A
C1262      F1267   1.354       .  S
C1263      C1264   1.412       .  A
C1264      F1265   1.357       .  S
F1266      C3995   1.358       .  S
C1269      C1270   1.401       .  A
C1269      C1274   1.398       .  A
C1269      F4012   1.358       .  S
C1270      C1271   1.407       .  A
C1271      C1272   1.401       .  A
C1271      F1278   1.358       .  S
C1272      C1273   1.402       .  A
C1272      F1277   1.358       .  S
C1273      C1274   1.403       .  A
C1274      F4011   1.355       .  S
F1275      C4010   1.355   1_455  S
F1276      C4005   1.358   1_455  S
C1279      C1280   1.410       .  A
C1279      C1284   1.404       .  A
C1279      F1286   1.358       .  S
C1280      C1281   1.408       .  A
C1281      C1282   1.391       .  A
C1281      F1288   1.359       .  S
C1282      C1283   1.405       .  A
C1282      F1287   1.354       .  S
C1283      C1284   1.408       .  A
C1284      F1285   1.358       .  S
C1289      C1290   1.408       .  A
C1289      C1294   1.394       .  A
C1289      F1296   1.358       .  S
C1290      C1291   1.411       .  A
C1291      C1292   1.402       .  A
C1291      F1298   1.358       .  S
C1292      C1293   1.407       .  A
C1292      F1297   1.358       .  S
C1293      C1294   1.406       .  A
C1294      F1295   1.355       .  S
C1299      C1300   1.409       .  A
C1299      C1304   1.402       .  A
C1299      F1306   1.357       .  S
C1300      C1301   1.406       .  A
C1301      C1302   1.390       .  A
C1301      F1308   1.359       .  S
C1302      C1303   1.402       .  A
C1302      F1307   1.356       .  S
C1303      C1304   1.405       .  A
C1304      F1305   1.358       .  S
C1309      C1310   1.404       .  A
C1309      C1314   1.396       .  A
C1309      F1316   1.358       .  S
C1310      C1311   1.408       .  A
C1311      C1312   1.397       .  A
C1311      F1318   1.358       .  S
C1312      C1313   1.402       .  A
C1312      F1317   1.358       .  S
C1313      C1314   1.405       .  A
C1314      F1315   1.358       .  S
C1319      C1320   1.411       .  A
C1319      C1324   1.406       .  A
C1319      F1326   1.358       .  S
C1320      C1321   1.406       .  A
C1321      C2690   1.388       .  A
C1321      F1328   1.359       .  S
C1322      C1323   1.409   1_565  A
C1322      C2689   1.388       .  A
C1322      F1327   1.356   1_565  S
C1323      C2692   1.409   1_545  A
C1324      C2691   1.409       .  A
C1324      F2693   1.358       .  S
F1325      C2692   1.358   1_545  S
C1329      C1330   1.407   1_455  A
C1329      C1334   1.398       .  A
C1329      F1336   1.358       .  S
C1330      C1331   1.404       .  A
C1330      C2750   1.477       .  S
C1331      C1332   1.400   1_655  A
C1331      F4074   1.357       .  S
C1332      C1333   1.405       .  A
C1332      F1337   1.358       .  S
C1333      C1334   1.402       .  A
C1334      F1335   1.356       .  S
F1338      C4067   1.357       .  S
C1339      C1340   1.410       .  A
C1339      C1344   1.405       .  A
C1339      F1346   1.357       .  S
C1340      C1341   1.408       .  A
C1341      C1342   1.395       .  A
C1341      F4084   1.358       .  S
C1342      C1343   1.404       .  A
C1342      F4083   1.352       .  S
C1343      C1344   1.408       .  A
C1344      F1345   1.357   1_545  S
F1347      C4078   1.352   1_455  S
F1348      C4077   1.358       .  S
C1349      C1350   1.406       .  A
C1349      C1354   1.401       .  A
C1349      F1356   1.358       .  S
C1350      C1351   1.404       .  A
C1351      C1352   1.397       .  A
C1351      F1358   1.355       .  S
C1352      C1353   1.408       .  A
C1352      F1357   1.358       .  S
C1353      C1354   1.409       .  A
C1353      C1373   1.488       .  S
C1354      F1355   1.358       .  S
C1359      C1360   1.407       .  A
C1359      C1364   1.404       .  A
C1359      F1366   1.358       .  S
C1360      C1361   1.403       .  A
C1361      C1362   1.397       .  A
C1361      F1368   1.353       .  S
C1362      C1363   1.406       .  A
C1362      F1367   1.358       .  S
C1363      C1364   1.409       .  A
C1364      F1365   1.358       .  S
C1369      C1370   1.404       .  A
C1369      C1374   1.397       .  A
C1369      C2731   1.487       .  S
C1370      C1371   1.420       .  A
C1370      H1375   1.078       .  S
C1371      C1372   1.417       .  A
C1371      C1380   1.515       .  S
C1372      C1373   1.406       .  A
C1372      H1376   1.079       .  S
C1373      C1374   1.399       .  A
C1374      H1377   1.084       .  S
C1378      C1379   1.408       .  A
C1378      C1383   1.400       .  A
C1378      C2708   1.491       .  S
C1379      C1380   1.422       .  A
C1379      H1384   1.078       .  S
C1380      C1381   1.417       .  A
C1381      C1382   1.400       .  A
C1381      H1385   1.078       .  S
C1382      C1383   1.394       .  A
C1382      C5434   1.477       .  S
C1383      H4122   1.084       .  S
H1386      C4119   1.084       .  S
C1387      C1388   1.396       .  A
C1387      C1392   1.393       .  A
C1387      C2678   1.475       .  S
C1388      C1389   1.412       .  A
C1388      H1393   1.079       .  S
C1389      C1390   1.418       .  A
C1389      C1398   1.504       .  S
C1390      C1391   1.406       .  A
C1390      H1394   1.079       .  S
C1391      C1392   1.401       .  A
C1391      C2688   1.489       .  S
C1392      H1395   1.083       .  S
C1396      C1397   1.399       .  A
C1396      C1401   1.397       .  A
C1396      C2668   1.480       .  S
C1397      C1398   1.412       .  A
C1397      H1402   1.078       .  S
C1398      C1399   1.417       .  A
C1399      C1400   1.403       .  A
C1399      H1403   1.079       .  S
C1400      C1401   1.399       .  A
C1400      C2658   1.490       .  S
C1401      H1404   1.083       .  S
C1405      C1406   1.408       .  A
C1405      C1410   1.399       .  A
C1405      C2648   1.490       .  S
C1406      C1407   1.420       .  A
C1406      H1411   1.077       .  S
C1407      C1408   1.420       .  A
C1407      C4152   1.515       .  S
C1408      C1409   1.399       .  A
C1408      H1412   1.078       .  S
C1409      C1410   1.388       .  A
C1409      C2638   1.474       .  S
C1410      H1413   1.084       .  S
C1414      C1415   1.399       .  A
C1414      C1419   1.394       .  A
C1414      C2618   1.481       .  S
C1415      C1416   1.416   1_455  A
C1415      H1420   1.079       .  S
C1416      C1417   1.423       .  A
C1416      C4143   1.515       .  S
C1417      C1418   1.411   1_655  A
C1417      H1421   1.075       .  S
C1418      C1419   1.400       .  A
C1418      C2631   1.500       .  S
C1419      H1422   1.084       .  S
C1423      C1424   1.406   1_556  A
C1423      C1428   1.397       .  A
C1423      C2601   1.491       .  S
C1424      C1425   1.420       .  A
C1424      H1429   1.077   1_554  S
C1425      C1426   1.415       .  A
C1425      C1434   1.511       .  S
C1426      C1427   1.404       .  A
C1426      H1430   1.079       .  S
C1427      C1428   1.398   1_554  A
C1427      C2611   1.490       .  S
C1428      H1431   1.083       .  S
C1432      C1433   1.408       .  A
C1432      C1437   1.399       .  A
C1432      C2588   1.492       .  S
C1433      C1434   1.422       .  A
C1433      H1438   1.080       .  S
C1434      C1435   1.414       .  A
C1435      C1436   1.400       .  A
C1435      H1439   1.079       .  S
C1436      C1437   1.394       .  A
C1436      C2578   1.475       .  S
C1437      H1440   1.084       .  S
C1441      C1442   1.399       .  A
C1441      C4182   1.396   1_455  A
C1441      C2558   1.477       .  S
C1442      C1443   1.413       .  A
C1442      H1447   1.077       .  S
C1443      C1444   1.421       .  A
C1443      C1454   1.513       .  S
C1444      C4181   1.402       .  A
C1444      H1448   1.075       .  S
C1445      C4180   1.402       .  A
C1445      C1446   1.393       .  A
C1445      C2568   1.481       .  S
C1446      C4177   1.396       .  A
C1446      H1449   1.084       .  S
C1450      C1451   1.395       .  A
C1450      C1455   1.400       .  A
C1450      C2551   1.482       .  S
C1451      C1452   1.394       .  A
C1451      H1456   1.084       .  S
C1452      C1453   1.402       .  A
C1452      C2538   1.481       .  S
C1453      C1454   1.421       .  A
C1453      H1457   1.077       .  S
C1454      C1455   1.414       .  A
C1455      H1458   1.073       .  S
C1459      C1460   1.401       .  A
C1459      C1464   1.409       .  A
C1459      C2521   1.497       .  S
C1460      C1461   1.393       .  A
C1460      H1465   1.083       .  S
C1461      C1462   1.404       .  A
C1461      C2528   1.484       .  S
C1462      C1463   1.418       .  A
C1462      H1466   1.078       .  S
C1463      C1464   1.422       .  A
C1463      C1470   1.519       .  S
C1464      H1467   1.078       .  S
C1468      C1469   1.407       .  A
C1468      C1473   1.398       .  A
C1468      C2501   1.493       .  S
C1469      C1470   1.421       .  A
C1469      H1474   1.078       .  S
C1470      C1471   1.419       .  A
C1471      C1472   1.407       .  A
C1471      H1475   1.077       .  S
C1472      C1473   1.398       .  A
C1473      H1476   1.084       .  S
C1477      C1478   1.408       .  A
C1477      C1482   1.397       .  A
C1477      C2488   1.492       .  S
C1478      C1479   1.424       .  A
C1478      H1483   1.079       .  S
C1479      C1480   1.419       .  A
C1479      C1488   1.520       .  S
C1480      C1481   1.408       .  A
C1480      H1484   1.079       .  S
C1481      C1482   1.397       .  A
C1481      C5214   1.488   1_455  S
C1482      H1485   1.084       .  S
C1486      C1487   1.414       .  A
C1486      C1491   1.404       .  A
C1486      C2468   1.504       .  S
C1487      C1488   1.423       .  A
C1487      H1492   1.079       .  S
C1488      C1489   1.416       .  A
C1489      C1490   1.403       .  A
C1489      H1493   1.079       .  S
C1490      C1491   1.399       .  A
C1490      C2458   1.491       .  S
C1491      H1494   1.082       .  S
C1495      C1496   1.400       .  A
C1495      C1500   1.395       .  A
C1495      C2448   1.477       .  S
C1496      C1497   1.417       .  A
C1496      H1501   1.077       .  S
C1497      C1498   1.420       .  A
C1497      C1506   1.516       .  S
C1498      C1499   1.407       .  A
C1498      H1502   1.079       .  S
C1499      C1500   1.400       .  A
C1499      C2441   1.490       .  S
C1500      H1503   1.084       .  S
C1504      C1505   1.404       .  A
C1504      C1509   1.395       .  A
C1504      C2421   1.485       .  S
C1505      C1506   1.419       .  A
C1505      H1510   1.078       .  S
C1506      C1507   1.422       .  A
C1507      C1508   1.403       .  A
C1507      H1511   1.077       .  S
C1508      C1509   1.393       .  A
C1508      C2431   1.482       .  S
C1509      H1512   1.084       .  S
C1513      C1514   1.392       .  A
C1513      C1518   1.400       .  A
C1513      C2411   1.474       .  S
C1514      C1515   1.396       .  A
C1514      H1519   1.084       .  S
C1515      C1516   1.406       .  A
C1515      C2398   1.484       .  S
C1516      C1517   1.419       .  A
C1516      H1520   1.079       .  S
C1517      C1518   1.415       .  A
C1517      C1526   1.511       .  S
C1518      H1521   1.079       .  S
C1522      C1523   1.396       .  A
C1522      C1527   1.401       .  A
C1522      C2378   1.477       .  S
C1523      C1524   1.397       .  A
C1523      H1528   1.085       .  S
C1524      C1525   1.403       .  A
C1524      C2388   1.478       .  S
C1525      C1526   1.418       .  A
C1525      H1529   1.079       .  S
C1526      C1527   1.416       .  A
C1527      H1530   1.079       .  S
C1531      C1532   1.407   1_556  A
C1531      C1536   1.400   1_556  A
C1531      C2358   1.491       .  S
C1532      H1537   1.075       .  S
C1533      C1534   1.416       .  A
C1533      C1542   1.515       .  S
C1534      H1538   1.078       .  S
C1535      C1536   1.393       .  A
C1535      C2371   1.476       .  S
C1536      H1539   1.084   1_554  S
C1540      C1541   1.401       .  A
C1540      C1545   1.395       .  A
C1540      C2348   1.482       .  S
C1541      C1542   1.418       .  A
C1541      H1546   1.077       .  S
C1542      C1543   1.419       .  A
C1543      C1544   1.406       .  A
C1543      H1547   1.077       .  S
C1544      C1545   1.398       .  A
C1544      C2341   1.488       .  S
C1545      H1548   1.083       .  S
C1549      C1550   1.404       .  A
C1549      C1554   1.396       .  A
C1549      C2318   1.484       .  S
C1550      C1551   1.417       .  A
C1550      H1555   1.080       .  S
C1551      C1552   1.418       .  A
C1551      C1560   1.512       .  S
C1552      C1553   1.408       .  A
C1552      H1556   1.079       .  S
C1553      C1554   1.397       .  A
C1553      C2331   1.491       .  S
C1554      H1557   1.083       .  S
C1558      C1559   1.403       .  A
C1558      C1563   1.393       .  A
C1558      C2311   1.479       .  S
C1559      C1560   1.418       .  A
C1559      H1564   1.079       .  S
C1560      C1561   1.419       .  A
C1561      C1562   1.407       .  A
C1561      H1565   1.080       .  S
C1562      C1563   1.398       .  A
C1562      C5034   1.489   1_455  S
C1563      H1566   1.084       .  S
C1567      C1568   1.398       .  A
C1567      C1572   1.392       .  A
C1567      C2281   1.470       .  S
C1568      C1569   1.416       .  A
C1568      H1573   1.079       .  S
C1569      C1570   1.419       .  A
C1569      C1578   1.513       .  S
C1570      C1571   1.409       .  A
C1570      H1574   1.078       .  S
C1571      C1572   1.399       .  A
C1571      C2288   1.491       .  S
C1572      H1575   1.084       .  S
C1576      C1581   1.396   1_545  A
C1576      C2261   1.484       .  S
C1577      C1578   1.419       .  A
C1577      H1582   1.077       .  S
C1579      C1580   1.401   1_545  A
C1579      H1583   1.079       .  S
C1580      C1581   1.391       .  A
C1580      C2271   1.475       .  S
C1581      H1584   1.085       .  S
C1585      C1586   1.411       .  A
C1585      C1590   1.400       .  A
C1585      C2248   1.501       .  S
C1586      C1587   1.426       .  A
C1586      H1591   1.077       .  S
C1587      C1588   1.417       .  A
C1587      C1596   1.525       .  S
C1588      C1589   1.404       .  A
C1588      H1592   1.073       .  S
C1589      C1590   1.398       .  A
C1589      C2238   1.494       .  S
C1590      H1593   1.083       .  S
C1594      C1595   1.408       .  A
C1594      C1599   1.399       .  A
C1594      C2228   1.497       .  S
C1595      C1596   1.426       .  A
C1595      H1600   1.075       .  S
C1596      C1597   1.418       .  A
C1597      C1598   1.405       .  A
C1597      H1601   1.077       .  S
C1598      C1599   1.397       .  A
C1598      C2218   1.489       .  S
C1599      H1602   1.083       .  S
C1603      C1604   1.398       .  A
C1603      C1608   1.393       .  A
C1603      C2208   1.473       .  S
C1604      C1605   1.414       .  A
C1604      H1609   1.079       .  S
C1605      C1606   1.420       .  A
C1605      C1614   1.508       .  S
C1606      C1607   1.407       .  A
C1606      H1610   1.078       .  S
C1607      C1608   1.395       .  A
C1607      C2198   1.487       .  S
C1608      H1611   1.084       .  S
C1612      C1617   1.395   1_545  A
C1612      C2188   1.476       .  S
C1613      C1614   1.412       .  A
C1613      H1618   1.079       .  S
C1615      C1616   1.405   1_545  A
C1615      H1619   1.079       .  S
C1616      C1617   1.398       .  A
C1616      C2178   1.487       .  S
C1617      H1620   1.083       .  S
C1621      C1626   1.399       .  A
C1621      C2158   1.488       .  S
C1622      C1623   1.419       .  A
C1622      H1627   1.078       .  S
C1623      C1624   1.417       .  A
C1623      C1632   1.514       .  S
C1624      C1625   1.402       .  A
C1624      H1628   1.079       .  S
C1625      C2168   1.474       .  S
C1626      H1629   1.084       .  S
C1630      C1631   1.410       .  A
C1630      C1635   1.401       .  A
C1630      C2138   1.493       .  S
C1631      C1632   1.420       .  A
C1631      H1636   1.079       .  S
C1632      C1633   1.416       .  A
C1633      C1634   1.399       .  A
C1633      H1637   1.078       .  S
C1634      C1635   1.393       .  A
C1634      C2151   1.474       .  S
C1635      H1638   1.084       .  S
C1639      C1640   1.402       .  A
C1639      C1644   1.395       .  A
C1639      C2118   1.480       .  S
C1640      C1641   1.418       .  A
C1640      H1645   1.078       .  S
C1641      C1642   1.417       .  A
C1641      C1650   1.515       .  S
C1642      C1643   1.402       .  A
C1642      H1646   1.076       .  S
C1643      C1644   1.398       .  A
C1643      C2131   1.485       .  S
C1644      H1647   1.084       .  S
C1648      C1649   1.403       .  A
C1648      C1653   1.398       .  A
C1648      C2108   1.493       .  S
C1649      C1650   1.421       .  A
C1649      H1654   1.073       .  S
C1650      C1651   1.420       .  A
C1651      C1652   1.403       .  A
C1651      H1655   1.078       .  S
C1652      C1653   1.397       .  A
C1652      C2098   1.487       .  S
C1653      H1656   1.084       .  S
C1657      C1658   1.407   1_556  A
C1657      C1662   1.403   1_556  A
C1657      C2088   1.493       .  S
C1658      C1659   1.416       .  A
C1658      H1663   1.079       .  S
C1659      C1660   1.417       .  A
C1659      C1668   1.510       .  S
C1660      C1661   1.400       .  A
C1660      H1664   1.078       .  S
C1661      C1662   1.394       .  A
C1661      C2081   1.483       .  S
C1662      H1665   1.082       .  S
C1666      C1667   1.401       .  A
C1666      C1671   1.393       .  A
C1666      C2061   1.474       .  S
C1667      C4404   1.417   1_455  A
C1667      H1672   1.078       .  S
C1668      C4403   1.417       .  A
C1668      C1669   1.418       .  A
C1669      C4406   1.402       .  A
C1669      H1673   1.080       .  S
C1670      C4405   1.402       .  A
C1670      C1671   1.395   1_655  A
C1670      C2068   1.475       .  S
C1671      H1674   1.085       .  S
C1675      C1676   1.406       .  A
C1675      C1680   1.396       .  A
C1675      C2048   1.487       .  S
C1676      C1677   1.420       .  A
C1676      H1681   1.078       .  S
C1677      C1678   1.418       .  A
C1677      C1688   1.515       .  S
C1678      C1679   1.402       .  A
C1678      H1682   1.077       .  S
C1679      C1680   1.391       .  A
C1679      C2038   1.478       .  S
C1680      H1683   1.084       .  S
C1684      C1685   1.393       .  A
C1684      C4425   1.402       .  A
C1684      C2021   1.481       .  S
C1685      C1686   1.398       .  A
C1685      H1690   1.084       .  S
C1686      C1687   1.405       .  A
C1686      C2031   1.490       .  S
C1687      C4424   1.421       .  A
C1687      H1691   1.075       .  S
C1688      C4423   1.421       .  A
C1688      C1689   1.418       .  A
C1689      C4420   1.402       .  A
C1689      H1692   1.079       .  S
O1693     Zr1729   2.453       .  S
O1693      C1704   1.295       .  A
O1694     Zr1728   2.449       .  S
O1694      C1705   1.294       .  A
O1695     Zr1701   2.437       .  S
O1695      C1706   1.293       .  A
O1696     Zr1701   2.441       .  S
O1696      C1707   1.292       .  A
O1697     Zr1731   2.444       .  S
O1697      C1707   1.295       .  A
O1698     Zr1730   2.433       .  S
O1698      C1706   1.291       .  A
O1699     Zr1701   2.443       .  S
O1699      C1705   1.293       .  A
O1700     Zr1701   2.440       .  S
O1700      C1704   1.292       .  A
Zr1701     O1702   2.346       .  S
Zr1701     O1703   2.340       .  S
Zr1701     O1711   2.343       .  S
Zr1701     O1709   2.342       .  S
O1702     Zr1728   2.342       .  S
O1702     Zr1731   2.347       .  S
O1703     Zr1729   2.339       .  S
O1703     Zr1730   2.342       .  S
C1704      C2728   1.480       .  S
C1705      C2481   1.477       .  S
C1706      C2418   1.475       .  S
C1707      C2028   1.485       .  S
H1708      O1709   0.965       .  S
O1709     Zr1728   2.342       .  S
O1709     Zr1730   2.342       .  S
H1710      O1711   0.966       .  S
O1711     Zr1729   2.333       .  S
O1711     Zr1731   2.339       .  S
O1712     Zr1728   2.441       .  S
O1712      C1735   1.294       .  A
O1713     Zr1729   2.449       .  S
O1713      C1736   1.294       .  A
O1714     Zr1730   2.447       .  S
O1714      C1737   1.294       .  A
O1715     Zr1731   2.433       .  S
O1715      C1738   1.292       .  A
O1716     Zr1731   2.452       .  S
O1716      C1739   1.294       .  A
O1717     Zr1730   2.445       .  S
O1717      C1740   1.293       .  A
O1718     Zr1732   2.437       .  S
O1718      C1741   1.291       .  A
O1719     Zr1732   2.428       .  S
O1719      C1742   1.291       .  A
O1720     Zr1730   2.432       .  S
O1720      C1741   1.292       .  A
O1721     Zr1731   2.446       .  S
O1721      C1742   1.294       .  A
O1722     Zr1728   2.430       .  S
O1722      C1737   1.291       .  A
O1723     Zr1729   2.415       .  S
O1723      C1740   1.287       .  A
O1724     Zr1729   2.418       .  S
O1724      C1739   1.289       .  A
O1725     Zr1728   2.448       .  S
O1725      C1738   1.294       .  A
O1726     Zr1732   2.442       .  S
O1726      C1735   1.292       .  A
O1727     Zr1732   2.441       .  S
O1727      C1736   1.293       .  A
Zr1728     O1734   2.342       .  S
Zr1728     O1746   2.340       .  S
Zr1729     O1733   2.337       .  S
Zr1729     O1744   2.340       .  S
Zr1730     O1734   2.337       .  S
Zr1730     O1744   2.335       .  S
Zr1731     O1733   2.341       .  S
Zr1731     O1746   2.344       .  S
Zr1732     O1733   2.345       .  S
Zr1732     O1734   2.335       .  S
Zr1732     O1746   2.343       .  S
Zr1732     O1744   2.335       .  S
C1735      C2598   1.480       .  S
C1736      C2461   1.480       .  S
C1737      C2661   1.481       .  S
C1738      C2091   1.489       .  S
C1739      C2691   1.485       .  S
C1740      C2211   1.460       .  S
C1741      C2051   1.483       .  S
C1742      C2361   1.478       .  S
H1743      O1744   0.965       .  S
H1745      O1746   0.966       .  S
O1747     Zr1783   2.426   1_556  S
O1747      C1758   1.291       .  A
O1748     Zr1782   2.432       .  S
O1748      C1759   1.290       .  A
O1749     Zr1755   2.437       .  S
O1749      C1760   1.291       .  A
O1750      C1761   1.293       .  A
O1751      C4497   1.291       .  A
O1752     Zr1784   2.451       .  S
O1752      C1760   1.295       .  A
O1753      C1759   1.294       .  A
O1754     Zr1755   2.438   1_556  S
O1754      C1758   1.291       .  A
Zr1755     O1757   2.343       .  S
Zr1755     O1765   2.349   1_554  S
Zr1755     O1763   2.340       .  S
O1756     Zr1782   2.342       .  S
O1756     Zr3153   2.346       .  S
O1757     Zr1783   2.344       .  S
O1757     Zr1784   2.339       .  S
C1758      C2671   1.469       .  S
C1759      C2078   1.472       .  S
C1760      C2338   1.483       .  S
C1761      C2018   1.466       .  S
C1761      O4487   1.291       .  A
H1762      O1763   0.966       .  S
O1763     Zr1784   2.343       .  S
H1764      O1765   0.966       .  S
O1765     Zr1783   2.337   1_556  S
O1765     Zr4521   2.337   1_556  S
O1766     Zr4518   2.428   1_455  S
O1766      C1789   1.291       .  A
O1767     Zr1783   2.431       .  S
O1767      C1790   1.290       .  A
O1768     Zr1784   2.433       .  S
O1768      C1791   1.292       .  A
O1769      C1792   1.290       .  A
O1770     Zr1785   2.445   1_556  S
O1770      C1793   1.294       .  A
O1771     Zr1784   2.439       .  S
O1771      C1794   1.292       .  A
O1772     Zr4522   2.424       .  S
O1772      C1795   1.290       .  A
O1773     Zr1786   2.435       .  S
O1773      C1796   1.291       .  A
O1774     Zr1784   2.449       .  S
O1774      C1795   1.294       .  A
O1775     Zr1785   2.434       .  S
O1775      C1796   1.291       .  A
O1776     Zr1782   2.439       .  S
O1777     Zr1783   2.439       .  S
O1777      C1794   1.293       .  A
O1778     Zr1783   2.458   1_556  S
O1778      C4529   1.295       .  A
O1779     Zr4518   2.443   1_455  S
O1779      C1792   1.293       .  A
O1780     Zr1786   2.457       .  S
O1781     Zr1786   2.446   1_655  S
O1781      C4526   1.294       .  A
Zr1782     O4502   2.428       .  S
Zr1782     O4515   2.443       .  S
Zr1782     O3168   2.337       .  S
Zr1783     O4523   2.335       .  S
Zr1783     O1798   2.343       .  S
Zr1784     O1788   2.342       .  S
Zr1784     O1798   2.341       .  S
Zr1785     O3124   2.346   1_465  S
Zr1785     O4501   2.337   1_454  S
Zr1785     O1787   2.339       .  S
Zr1785     O1800   2.341       .  S
Zr1786     O4508   2.424   1_455  S
Zr1786     O1787   2.342       .  S
Zr1786     O4524   2.337   1_455  S
Zr1786     O1800   2.335       .  S
Zr1786     O4534   2.339   1_455  S
O1787     Zr4519   2.335   1_455  S
O1788     Zr4522   2.337       .  S
C1789      C2518   1.490       .  S
C1790      C2071   1.469       .  S
C1790      O4517   1.294       .  A
C1791      C2258   1.474       .  S
C1792      C2581   1.468       .  S
C1793      C2471   1.495       .  S
C1793      O4514   1.295   1_455  A
C1794      C2608   1.482       .  S
C1795      C2111   1.482       .  S
C1796      C2368   1.463       .  S
H1797      O1798   0.965       .  S
O1798     Zr4522   2.339       .  S
O1800     Zr3150   2.336   1_465  S
O1801     Zr1837   2.438       .  S
O1801      C1812   1.293       .  A
O1802     Zr1836   2.436       .  S
O1802      C1813   1.292       .  A
O1803     Zr1809   2.437       .  S
O1803      C1814   1.292       .  A
O1804     Zr1809   2.444       .  S
O1804      C1815   1.293       .  A
O1805     Zr1839   2.431       .  S
O1805      C1815   1.291       .  A
O1806     Zr1838   2.451       .  S
O1806      C1814   1.294       .  A
O1807     Zr1809   2.443       .  S
O1807      C1813   1.293       .  A
O1808     Zr1809   2.440       .  S
O1808      C1812   1.292       .  A
Zr1809     O1810   2.336       .  S
Zr1809     O1811   2.341       .  S
Zr1809     O1819   2.342       .  S
Zr1809     O1817   2.348       .  S
O1810     Zr1836   2.335       .  S
O1810     Zr1839   2.333       .  S
O1811     Zr1837   2.342       .  S
O1811     Zr1838   2.345       .  S
C1812      C2651   1.482       .  S
C1813      C2221   1.475       .  S
C1814      C2161   1.480       .  S
C1815      C2301   1.482       .  S
H1816      O1817   0.966       .  S
O1817     Zr1836   2.344       .  S
O1817     Zr1838   2.344       .  S
H1818      O1819   0.966       .  S
O1819     Zr1837   2.346       .  S
O1819     Zr1839   2.342       .  S
O1820     Zr1836   2.445       .  S
O1820      C1843   1.294       .  A
O1821     Zr1837   2.444       .  S
O1821      C1844   1.293       .  A
O1822     Zr1838   2.440       .  S
O1822      C1845   1.292       .  A
O1823     Zr1839   2.435       .  S
O1823      C1846   1.291       .  A
O1824     Zr1839   2.429       .  S
O1824      C1847   1.290       .  A
O1825     Zr1838   2.431       .  S
O1825      C1848   1.291       .  A
O1826     Zr1840   2.429       .  S
O1826      C1849   1.290       .  A
O1827     Zr1840   2.433       .  S
O1827      C1850   1.291       .  A
O1828     Zr1838   2.454       .  S
O1828      C1849   1.295       .  A
O1829     Zr1839   2.439       .  S
O1829      C1850   1.292       .  A
O1830     Zr1836   2.427       .  S
O1830      C1845   1.291       .  A
O1831     Zr1837   2.447       .  S
O1831      C1848   1.294       .  A
O1832     Zr1837   2.454       .  S
O1832      C1847   1.295       .  A
O1833     Zr1836   2.431       .  S
O1833      C1846   1.289       .  A
O1834     Zr1840   2.444       .  S
O1834      C1843   1.293       .  A
O1835     Zr1840   2.439       .  S
O1835      C1844   1.293       .  A
Zr1836     O1842   2.335       .  S
Zr1836     O1854   2.340       .  S
Zr1837     O1841   2.336       .  S
Zr1837     O1852   2.349       .  S
Zr1838     O1842   2.338       .  S
Zr1838     O1852   2.349       .  S
Zr1839     O1841   2.338       .  S
Zr1839     O1854   2.336       .  S
Zr1840     O1841   2.337       .  S
Zr1840     O1842   2.339       .  S
Zr1840     O1854   2.340       .  S
Zr1840     O1852   2.341       .  S
C1843      C2498   1.483       .  S
C1844      C2241   1.484       .  S
C1845      C2541   1.473       .  S
C1846      C2278   1.461       .  S
C1847      C2571   1.472       .  S
C1848      C2408   1.470       .  S
C1849      C2328   1.482       .  S
C1850      C2121   1.470       .  S
H1851      O1852   0.966       .  S
H1853      O1854   0.966       .  S
O1855     Zr1891   2.438       .  S
O1855      C1866   1.292       .  A
O1856     Zr1890   2.447       .  S
O1856      C1867   1.294       .  A
O1857     Zr1863   2.435       .  S
O1857      C1868   1.292       .  A
O1858     Zr1863   2.433       .  S
O1858      C1869   1.291       .  A
O1859     Zr1893   2.430       .  S
O1859      C1869   1.290       .  A
O1860     Zr1892   2.432       .  S
O1860      C1868   1.292       .  A
O1861     Zr1863   2.446       .  S
O1861      C1867   1.293       .  A
O1862     Zr1863   2.445       .  S
O1862      C1866   1.294       .  A
Zr1863     O1864   2.332       .  S
Zr1863     O1865   2.338       .  S
Zr1863     O1873   2.351       .  S
Zr1863     O1871   2.340       .  S
O1864     Zr1890   2.331       .  S
O1864     Zr1893   2.339       .  S
O1865     Zr1891   2.339       .  S
O1865     Zr1892   2.338       .  S
C1866      C2718   1.479       .  S
C1867      C2491   1.482       .  S
C1868      C2181   1.480       .  S
C1869      C2681   1.464       .  S
H1870      O1871   0.966       .  S
O1871     Zr1890   2.335       .  S
O1871     Zr1892   2.341       .  S
H1872      O1873   0.966       .  S
O1873     Zr1891   2.346       .  S
O1873     Zr1893   2.350       .  S
O1874     Zr1890   2.437       .  S
O1874      C1897   1.291       .  A
O1875     Zr1891   2.436       .  S
O1875      C1898   1.292       .  A
O1876     Zr1892   2.439       .  S
O1876      C1899   1.291       .  A
O1877     Zr1893   2.448       .  S
O1877      C1900   1.294       .  A
O1878     Zr1893   2.457       .  S
O1878      C1901   1.295       .  A
O1879     Zr1892   2.438       .  S
O1879      C1902   1.293       .  A
O1880     Zr1894   2.436       .  S
O1880      C1903   1.293       .  A
O1881     Zr1894   2.432       .  S
O1881      C1904   1.291       .  A
O1882     Zr1892   2.429       .  S
O1882      C1903   1.290       .  A
O1883     Zr1893   2.446       .  S
O1883      C1904   1.294       .  A
O1884     Zr1890   2.432       .  S
O1884      C1899   1.292       .  A
O1885     Zr1891   2.442       .  S
O1885      C1902   1.293       .  A
O1886     Zr1891   2.430       .  S
O1886      C1901   1.291       .  A
O1887     Zr1890   2.425       .  S
O1887      C1900   1.289       .  A
O1888     Zr1894   2.440       .  S
O1888      C1897   1.292       .  A
O1889     Zr1894   2.442       .  S
O1889      C1898   1.292       .  A
Zr1890     O1896   2.335       .  S
Zr1890     O1908   2.345       .  S
Zr1891     O1895   2.340       .  S
Zr1891     O1906   2.337       .  S
Zr1892     O1896   2.338       .  S
Zr1892     O1906   2.339       .  S
Zr1893     O1895   2.336       .  S
Zr1893     O1908   2.350       .  S
Zr1894     O1895   2.338       .  S
Zr1894     O1896   2.337       .  S
Zr1894     O1908   2.344       .  S
Zr1894     O1906   2.344       .  S
C1897      C2701   1.468       .  S
C1898      C2381   1.470       .  S
C1899      C2428   1.472       .  S
C1900      C2041   1.468       .  S
C1901      C2438   1.485       .  S
C1902      C2141   1.483       .  S
C1903      C2621   1.473       .  S
C1904      C2201   1.477       .  S
H1905      O1906   0.966       .  S
H1907      O1908   0.966       .  S
O1909     Zr1945   2.439       .  S
O1909      C1920   1.293       .  A
O1910     Zr1944   2.429       .  S
O1910      C1921   1.289       .  A
O1911     Zr1917   2.438       .  S
O1911      C1922   1.293       .  A
O1912     Zr1917   2.443       .  S
O1912      C1923   1.293       .  A
O1913     Zr1947   2.426       .  S
O1913      C1923   1.290       .  A
O1914     Zr1946   2.438       .  S
O1914      C1922   1.292       .  A
O1915     Zr1917   2.445       .  S
O1915      C1921   1.293       .  A
O1916     Zr1917   2.447       .  S
O1916      C1920   1.294       .  A
Zr1917     O1918   2.339       .  S
Zr1917     O1919   2.341       .  S
Zr1917     O1927   2.347       .  S
Zr1917     O1925   2.345       .  S
O1918     Zr1944   2.338       .  S
O1918     Zr1947   2.339       .  S
O1919     Zr1945   2.340       .  S
O1919     Zr1946   2.339       .  S
C1920      C2591   1.485       .  S
C1921      C2268   1.465       .  S
C1922      C2351   1.472       .  S
C1923      C2128   1.476       .  S
H1924      O1925   0.966       .  S
O1925     Zr1944   2.335       .  S
O1925     Zr1946   2.339       .  S
H1926      O1927   0.966       .  S
O1927     Zr1945   2.344       .  S
O1927     Zr1947   2.343       .  S
O1928     Zr1944   2.420       .  S
O1928      C1951   1.290       .  A
O1929     Zr1945   2.439       .  S
O1929      C1952   1.292       .  A
O1930     Zr1946   2.444       .  S
O1930      C1953   1.293       .  A
O1931     Zr1947   2.448       .  S
O1931      C1954   1.295       .  A
O1932     Zr1947   2.438       .  S
O1932      C1955   1.292       .  A
O1933     Zr1946   2.436       .  S
O1933      C1956   1.291       .  A
O1934     Zr1948   2.446       .  S
O1934      C1957   1.293       .  A
O1935     Zr1948   2.453       .  S
O1935      C1958   1.295       .  A
O1936     Zr1946   2.431       .  S
O1936      C1957   1.292       .  A
O1937     Zr1947   2.429       .  S
O1937      C1958   1.289       .  A
O1938     Zr1944   2.440       .  S
O1938      C1953   1.293       .  A
O1939     Zr1945   2.443       .  S
O1939      C1956   1.292       .  A
O1940     Zr1945   2.450       .  S
O1940      C1955   1.294       .  A
O1941     Zr1944   2.449       .  S
O1941      C1954   1.294       .  A
O1942     Zr1948   2.431       .  S
O1942      C1951   1.291       .  A
O1943     Zr1948   2.442       .  S
O1943      C1952   1.293       .  A
Zr1944     O1950   2.340       .  S
Zr1944     O1962   2.339       .  S
Zr1945     O1949   2.343       .  S
Zr1945     O1960   2.343       .  S
Zr1946     O1950   2.335       .  S
Zr1946     O1960   2.340       .  S
Zr1947     O1949   2.342       .  S
Zr1947     O1962   2.336       .  S
Zr1948     O1949   2.342       .  S
Zr1948     O1950   2.343       .  S
Zr1948     O1962   2.343       .  S
Zr1948     O1960   2.345       .  S
C1951      C2548   1.469       .  S
C1952      C2291   1.480       .  S
C1953      C2508   1.480       .  S
C1954      C2251   1.489       .  S
C1955      C2531   1.475       .  S
C1956      C2058   1.468       .  S
C1957      C2101   1.481       .  S
C1958      C2308   1.471       .  S
H1959      O1960   0.966       .  S
H1961      O1962   0.966       .  S
O1963     Zr1999   2.446   1_655  S
O1963      C4710   1.294       .  A
O1964     Zr1998   2.447       .  S
O1964      C1975   1.293       .  A
O1965     Zr1971   2.440       .  S
O1965      C1976   1.292       .  A
O1966     Zr1971   2.438       .  S
O1966      C1977   1.292       .  A
O1967     Zr4737   2.444       .  S
O1967      C1977   1.292       .  A
O1968     Zr2000   2.443       .  S
O1969     Zr1971   2.430       .  S
O1969      C1975   1.291       .  A
O1970     Zr1971   2.442       .  S
Zr1971     O1972   2.344       .  S
Zr1971     O1981   2.341       .  S
Zr1971     O1979   2.347       .  S
O1972     Zr1998   2.342       .  S
O1972     Zr4737   2.340       .  S
O1973     Zr4735   2.339       .  S
O1973     Zr2000   2.346       .  S
C1974      C2711   1.483       .  S
C1974      O4699   1.294       .  A
C1975      C2391   1.472       .  S
C1976      C2171   1.468       .  S
C1977      C2451   1.468       .  S
H1978      O1979   0.966       .  S
O1979     Zr1998   2.336       .  S
H1980      O1981   0.966       .  S
O1981     Zr3367   2.334   1_565  S
O1981     Zr4737   2.347       .  S
O1982     Zr1998   2.422       .  S
O1982      C4741   1.290       .  A
O1983     Zr1999   2.428       .  S
O1983      C2006   1.290       .  A
O1984      C2007   1.292       .  A
O1985     Zr4737   2.437       .  S
O1985      C2008   1.291       .  A
O1986     Zr2001   2.432       .  S
O1986      C2009   1.291       .  A
O1987     Zr4736   2.445       .  S
O1987      C2010   1.293       .  A
O1988      C2011   1.293       .  A
O1989     Zr2002   2.446       .  S
O1989      C2012   1.292       .  A
O1990     Zr4736   2.437       .  S
O1990      C2011   1.292   1_655  A
O1991     Zr2001   2.442       .  S
O1991      C2012   1.292       .  A
O1992     Zr1998   2.460       .  S
O1992      C2007   1.296       .  A
O1993     Zr1999   2.429       .  S
O1993      C2010   1.292   1_455  A
O1994     Zr1999   2.437       .  S
O1995     Zr1998   2.445       .  S
O1995      C2008   1.293       .  A
O1996     Zr2002   2.433       .  S
O1996      C2005   1.291       .  A
O1997      C2006   1.294       .  A
Zr1998     O2004   2.344       .  S
Zr1998     O4752   2.347       .  S
Zr1999     O4709   2.339   1_455  S
Zr1999     O3349   2.334   1_455  S
Zr1999     O2014   2.339       .  S
Zr2000     O4723   2.445       .  S
Zr2000     O4726   2.437       .  S
Zr2000     O4750   2.345       .  S
Zr2001     O4703   2.444   1_455  S
Zr2001     O4721   2.437   1_455  S
Zr2001     O4708   2.340   1_455  S
Zr2001     O4717   2.347   1_455  S
Zr2001     O2003   2.336       .  S
Zr2001     O2016   2.336       .  S
Zr2002     O2003   2.332       .  S
Zr2002     O4740   2.348   1_455  S
Zr2002     O2016   2.342       .  S
O2004     Zr4738   2.348       .  S
C2005      C2561   1.467       .  S
C2005      O4718   1.290   1_455  A
C2006      C2401   1.476       .  S
C2007      C2231   1.488       .  S
C2008      C2641   1.467       .  S
C2009      C2191   1.470       .  S
C2010      C2628   1.483   1_655  S
C2011      C2321   1.476       .  S
C2012      C2148   1.471       .  S
H2013      O2014   0.966       .  S
O2014     Zr4736   2.345   1_455  S
H2015      O2016   0.965       .  S
O2016     Zr4734   2.347   1_455  S
C2017      C2018   1.402       .  A
C2017      C2022   1.396       .  A
C2018      C4755   1.403       .  A
C2019      C4754   1.403       .  A
C2019      C2020   1.400       .  A
C2019      F2026   1.357       .  S
C2020      C4757   1.408       .  A
C2020      F2025   1.358       .  S
C2021      C4756   1.408       .  A
C2021      C2022   1.407       .  A
C2022      F2023   1.358       .  S
C2027      C2028   1.410       .  A
C2027      C2032   1.408       .  A
C2027      F2034   1.357       .  S
C2028      C2029   1.402       .  A
C2029      C2030   1.388       .  A
C2029      F2036   1.349       .  S
C2030      C2031   1.407       .  A
C2030      F2035   1.359       .  S
C2031      C2032   1.410       .  A
C2032      F2033   1.357       .  S
C2037      C2038   1.407       .  A
C2037      C2042   1.397       .  A
C2037      F2044   1.358       .  S
C2038      C2039   1.407       .  A
C2039      C2040   1.398       .  A
C2039      F2046   1.358       .  S
C2040      C2041   1.404       .  A
C2040      F2045   1.358       .  S
C2041      C2042   1.403       .  A
C2042      F2043   1.358       .  S
C2047      C2048   1.408       .  A
C2047      C2052   1.391       .  A
C2047      F2054   1.359       .  S
C2048      C2049   1.407       .  A
C2049      C2050   1.402       .  A
C2049      F2056   1.358       .  S
C2050      C2051   1.410       .  A
C2050      F2055   1.357       .  S
C2051      C2052   1.407       .  A
C2052      F2053   1.357       .  S
C2057      C2058   1.405       .  A
C2057      C2062   1.401       .  A
C2057      F2064   1.356       .  S
C2058      C2059   1.401       .  A
C2059      C2060   1.396       .  A
C2059      F2066   1.356       .  S
C2060      C2061   1.405       .  A
C2060      F2065   1.358   1_455  S
C2061      C2062   1.404       .  A
C2062      F2063   1.358       .  S
C2067      C4804   1.403       .  A
C2067      C2072   1.394       .  A
C2067      F2074   1.358       .  S
C2068      C4803   1.403       .  A
C2068      C2069   1.406   1_655  A
C2069      C2070   1.402   1_455  A
C2069      F2076   1.358       .  S
C2070      C4807   1.405       .  A
C2070      F2075   1.358   1_655  S
C2071      C4806   1.405       .  A
C2071      C2072   1.402       .  A
C2072      F2073   1.355       .  S
C2077      C2078   1.403       .  A
C2077      C2082   1.399       .  A
C2077      F2084   1.358       .  S
C2078      C2079   1.404       .  A
C2079      C2080   1.400       .  A
C2079      F2086   1.356       .  S
C2080      C2081   1.407       .  A
C2080      F2085   1.358       .  S
C2081      C2082   1.408       .  A
C2082      F2083   1.358       .  S
C2087      C2088   1.412       .  A
C2087      C2092   1.405       .  A
C2087      F2094   1.357       .  S
C2088      C2089   1.407       .  A
C2089      C2090   1.389       .  A
C2089      F2096   1.358       .  S
C2090      C2091   1.406       .  A
C2090      F2095   1.351       .  S
C2091      C2092   1.410       .  A
C2092      F2093   1.356       .  S
C2097      C4834   1.406       .  A
C2097      C2102   1.388   1_655  A
C2097      F4840   1.357       .  S
C2098      C4833   1.406       .  A
C2098      C4835   1.409       .  A
C2099      C4834   1.409       .  A
C2099      C2100   1.407   1_655  A
C2099      F4842   1.357       .  S
C2100      C2101   1.410       .  A
C2100      F2105   1.358       .  S
C2101      C2102   1.405       .  A
C2102      F2103   1.356       .  S
F2104      C4833   1.357       .  S
F2106      C4835   1.357       .  S
C2107      C2108   1.412       .  A
C2107      C2112   1.406       .  A
C2107      F2114   1.357       .  S
C2108      C2109   1.409       .  A
C2109      C2110   1.388       .  A
C2109      F2116   1.357       .  S
C2110      C2111   1.405       .  A
C2110      F4851   1.356       .  S
C2111      C2112   1.409       .  A
C2112      F2113   1.358       .  S
F2115      C4846   1.356       .  S
C2117      C2118   1.407       .  A
C2117      C2122   1.399       .  A
C2117      F2124   1.358       .  S
C2118      C2119   1.407       .  A
C2119      C2120   1.397       .  A
C2119      F2126   1.358       .  S
C2120      C2121   1.404       .  A
C2120      F2125   1.358       .  S
C2121      C2122   1.404       .  A
C2122      F2123   1.358       .  S
C2127      C2128   1.406       .  A
C2127      C2132   1.394       .  A
C2127      F2134   1.355       .  S
C2128      C2129   1.405       .  A
C2129      C2130   1.400       .  A
C2129      F2136   1.357       .  S
C2130      C2131   1.410       .  A
C2130      F2135   1.358       .  S
C2131      C2132   1.406       .  A
C2132      F2133   1.358       .  S
C2137      C2138   1.409       .  A
C2137      C2142   1.402       .  A
C2137      F2144   1.358       .  S
C2138      C2139   1.410       .  A
C2139      C2140   1.396       .  A
C2139      F2146   1.358       .  S
C2140      C2141   1.406       .  A
C2140      F2145   1.358       .  S
C2141      C2142   1.408       .  A
C2142      F2143   1.356       .  S
C2147      C2148   1.402       .  A
C2147      C2152   1.398       .  A
C2147      F2154   1.356       .  S
C2148      C2149   1.405       .  A
C2149      C2150   1.401       .  A
C2149      F2156   1.354       .  S
C2150      C2151   1.403       .  A
C2150      F2155   1.358       .  S
C2151      C2152   1.404       .  A
C2152      F2153   1.358       .  S
C2157      C2158   1.408       .  A
C2157      C2162   1.399       .  A
C2157      F2164   1.358       .  S
C2158      C2159   1.409       .  A
C2159      C2160   1.402       .  A
C2160      C2161   1.406       .  A
C2160      F2165   1.357       .  S
C2161      C2162   1.407       .  A
C2162      F2163   1.358       .  S
C2167      C2168   1.403       .  A
C2167      C2172   1.397       .  A
C2167      F2174   1.358       .  S
C2169      C2170   1.402       .  A
C2169      F2176   1.358       .  S
C2170      F2175   1.357       .  S
C2171      C2172   1.404       .  A
C2172      F2173   1.357       .  S
C2177      C2178   1.408       .  A
C2177      C2182   1.396       .  A
C2177      F2184   1.358       .  S
C2178      C2179   1.410       .  A
C2179      C2180   1.397       .  A
C2179      F2186   1.358       .  S
C2180      C2181   1.407       .  A
C2180      F2185   1.358       .  S
C2181      C2182   1.407       .  A
C2182      F2183   1.356       .  S
C2187      C2188   1.407   1_565  A
C2187      C2192   1.398       .  A
C2187      F2194   1.358       .  S
C2188      C2189   1.405       .  A
C2189      C2190   1.393       .  A
C2189      F2196   1.358       .  S
C2190      C2191   1.402   1_545  A
C2190      F2195   1.352       .  S
C2191      C2192   1.405       .  A
C2192      F2193   1.357       .  S
C2197      C2198   1.412       .  A
C2197      C2202   1.397       .  A
C2197      F2204   1.358       .  S
C2198      C2199   1.406       .  A
C2199      C2200   1.399       .  A
C2199      F2206   1.358       .  S
C2200      C2201   1.408       .  A
C2200      F2205   1.356       .  S
C2201      C2202   1.403       .  A
C2202      F2203   1.358       .  S
C2207      C2208   1.406       .  A
C2207      C2212   1.398       .  A
C2207      F2214   1.358       .  S
C2208      C2209   1.406       .  A
C2209      C2210   1.392       .  A
C2209      F2216   1.358       .  S
C2210      C2211   1.400       .  A
C2210      F2215   1.356       .  S
C2211      C2212   1.403       .  A
C2212      F2213   1.358       .  S
C2217      C2222   1.399       .  A
C2217      F2224   1.358       .  S
C2218      C2219   1.409       .  A
C2219      F2226   1.358       .  S
C2220      C2221   1.405       .  A
C2220      F2225   1.358       .  S
C2221      C2222   1.405       .  A
C2222      F2223   1.358       .  S
C2227      C2228   1.409       .  A
C2227      C2232   1.396       .  A
C2227      F2234   1.358       .  S
C2228      C2229   1.411       .  A
C2229      C2230   1.408       .  A
C2229      F2236   1.358       .  S
C2230      C2231   1.409       .  A
C2230      F2235   1.358       .  S
C2231      C2232   1.407       .  A
C2232      F2233   1.357       .  S
C2237      C2238   1.411       .  A
C2237      C2242   1.396       .  A
C2237      F2244   1.358       .  S
C2238      C2239   1.410       .  A
C2239      C2240   1.401       .  A
C2239      F2246   1.357       .  S
C2240      C2241   1.406       .  A
C2240      F2245   1.354       .  S
C2241      C2242   1.404       .  A
C2242      F2243   1.355       .  S
C2247      C2248   1.412       .  A
C2247      C2252   1.398       .  A
C2247      F2254   1.358       .  S
C2248      C2249   1.411       .  A
C2249      C2250   1.407       .  A
C2249      F2256   1.357       .  S
C2250      C2251   1.410       .  A
C2250      F2255   1.358       .  S
C2251      C2252   1.406       .  A
C2252      F2253   1.359       .  S
C2257      C2262   1.402       .  A
C2257      F2264   1.358       .  S
C2258      C2259   1.404       .  A
C2259      C2260   1.393       .  A
C2259      F2266   1.359       .  S
C2260      C2261   1.409   1_565  A
C2260      F2265   1.359       .  S
C2262      F2263   1.358       .  S
C2267      C2268   1.402       .  A
C2267      C2272   1.399       .  A
C2267      F2274   1.357       .  S
C2268      C2269   1.403       .  A
C2269      C2270   1.397       .  A
C2269      F2276   1.357       .  S
C2270      C2271   1.404       .  A
C2270      F2275   1.358       .  S
C2271      C2272   1.407       .  A
C2272      F2273   1.358       .  S
C2277      C2278   1.401       .  A
C2277      C2282   1.395       .  A
C2277      F2284   1.358       .  S
C2278      C2279   1.404       .  A
C2279      C2280   1.400       .  A
C2279      F2286   1.358       .  S
C2280      C2281   1.404       .  A
C2280      F2285   1.357       .  S
C2281      C2282   1.404       .  A
C2282      F2283   1.358       .  S
C2287      C2288   1.411       .  A
C2287      C5028   1.399       .  A
C2287      F2294   1.358       .  S
C2288      C2289   1.409       .  A
C2289      C5026   1.399       .  A
C2289      F2296   1.358       .  S
C2290      C5025   1.399   1_455  A
C2290      C2291   1.406       .  A
C2290      F2295   1.357       .  S
C2291      C2292   1.406   1_455  A
C2292      C5023   1.399       .  A
C2292      F2293   1.358       .  S
C2297      C2298   1.409       .  A
C2297      C2302   1.404       .  A
C2297      F2304   1.358       .  S
C2298      C2299   1.408       .  A
C2298      C4298   1.489       .  S
C2299      C2300   1.393       .  A
C2299      F2306   1.358       .  S
C2300      C2301   1.407       .  A
C2300      F2305   1.359       .  S
C2301      C2302   1.409       .  A
C2302      F2303   1.358       .  S
C2307      C2308   1.404       .  A
C2307      C2312   1.401       .  A
C2307      F2314   1.358       .  S
C2308      C2309   1.403       .  A
C2309      C2310   1.399       .  A
C2309      F2316   1.356       .  S
C2310      C2311   1.406       .  A
C2310      F2315   1.358       .  S
C2311      C2312   1.407       .  A
C2312      F2313   1.358       .  S
C2317      C2318   1.408       .  A
C2317      C2322   1.396       .  A
C2317      F2324   1.358       .  S
C2318      C2319   1.407       .  A
C2319      C2320   1.401       .  A
C2319      F5062   1.358       .  S
C2320      C2321   1.407       .  A
C2320      F5061   1.358   1_455  S
C2321      C2322   1.405       .  A
C2322      F2323   1.358       .  S
F2325      C5056   1.358       .  S
F2326      C5055   1.358       .  S
C2327      C2328   1.407       .  A
C2327      C2332   1.397       .  A
C2327      F2334   1.355       .  S
C2328      C2329   1.406       .  A
C2329      C2330   1.401       .  A
C2329      F2336   1.358       .  S
C2330      C2331   1.412       .  A
C2330      F2335   1.358       .  S
C2331      C2332   1.407       .  A
C2332      F2333   1.358       .  S
C2337      C2338   1.407       .  A
C2337      C2342   1.401       .  A
C2337      F2344   1.356       .  S
C2338      C2339   1.404       .  A
C2339      C2340   1.397       .  A
C2339      F2346   1.352       .  S
C2340      C2341   1.408       .  A
C2340      F2345   1.358       .  S
C2341      C2342   1.409       .  A
C2342      F2343   1.358       .  S
C2347      C2348   1.407       .  A
C2347      C2352   1.396       .  A
C2347      F2354   1.358       .  S
C2348      C2349   1.408       .  A
C2349      C2350   1.400       .  A
C2349      F2356   1.358       .  S
C2350      C2351   1.405       .  A
C2350      F2355   1.358       .  S
C2351      C2352   1.404       .  A
C2352      F2353   1.358       .  S
C2357      C2358   1.410       .  A
C2357      C2362   1.393       .  A
C2357      F2364   1.358       .  S
C2358      C2359   1.410       .  A
C2359      C2360   1.402       .  A
C2359      F2366   1.357       .  S
C2360      C2361   1.407       .  A
C2360      F2365   1.358       .  S
C2361      C2362   1.405       .  A
C2362      F2363   1.359       .  S
C2367      C2372   1.399       .  A
C2367      F2374   1.358       .  S
C2368      C2369   1.402       .  A
C2369      C2370   1.397       .  A
C2369      F2376   1.358       .  S
C2370      F2375   1.358       .  S
C2371      C2372   1.406       .  A
C2372      F2373   1.358       .  S
C2377      C2378   1.407       .  A
C2377      C2382   1.401       .  A
C2377      F2384   1.358       .  S
C2378      C2379   1.404       .  A
C2379      C2380   1.396       .  A
C2379      F2386   1.358       .  S
C2380      C2381   1.404       .  A
C2380      F2385   1.356       .  S
C2381      C2382   1.404       .  A
C2382      F2383   1.358       .  S
C2387      C2388   1.403       .  A
C2387      C2392   1.395       .  A
C2387      F2394   1.358       .  S
C2388      C2389   1.408       .  A
C2389      C2390   1.403       .  A
C2389      F2396   1.358       .  S
C2390      C2391   1.405       .  A
C2390      F2395   1.358       .  S
C2391      C2392   1.405       .  A
C2392      F2393   1.358       .  S
C2397      C2398   1.407       .  A
C2397      C2402   1.399       .  A
C2397      F2404   1.358       .  S
C2398      C2399   1.408       .  A
C2399      C2400   1.397       .  A
C2399      F2406   1.358       .  S
C2400      C2401   1.405       .  A
C2400      F2405   1.356       .  S
C2401      C2402   1.407       .  A
C2402      F2403   1.358       .  S
C2407      C2408   1.403       .  A
C2407      C2412   1.397       .  A
C2407      F2414   1.352       .  S
C2408      C2409   1.404       .  A
C2409      C2410   1.397       .  A
C2409      F2416   1.358       .  S
C2410      C2411   1.406       .  A
C2410      F2415   1.358       .  S
C2411      C2412   1.403       .  A
C2412      F2413   1.358       .  S
C2417      C2418   1.408       .  A
C2417      C2422   1.402       .  A
C2417      F2424   1.358       .  S
C2418      C2419   1.404       .  A
C2419      C2420   1.393       .  A
C2419      F2426   1.359       .  S
C2420      C2421   1.409       .  A
C2420      F2425   1.358       .  S
C2421      C2422   1.407       .  A
C2422      F2423   1.358       .  S
C2427      C2428   1.402       .  A
C2427      C5168   1.390   1_455  A
C2427      F2434   1.359       .  S
C2428      C5165   1.408       .  A
C2429      C5164   1.408       .  A
C2429      C2430   1.405       .  A
C2429      F5172   1.358       .  S
C2430      C2431   1.407       .  A
C2430      F2435   1.357       .  S
C2431      C2432   1.408       .  A
C2432      C5163   1.390       .  A
C2432      F2433   1.358       .  S
F2436      C5165   1.358       .  S
C2437      C2438   1.408       .  A
C2437      C2442   1.395       .  A
C2437      F2444   1.359       .  S
C2438      C2439   1.408       .  A
C2439      C2440   1.406       .  A
C2439      F2446   1.358       .  S
C2440      C2441   1.410       .  A
C2440      F2445   1.358       .  S
C2441      C2442   1.406       .  A
C2442      F2443   1.358       .  S
C2447      C2448   1.404       .  A
C2447      C2452   1.399       .  A
C2447      F2454   1.358       .  S
C2448      C2449   1.406       .  A
C2449      C2450   1.400       .  A
C2449      F2456   1.358       .  S
C2450      C2451   1.403       .  A
C2450      F2455   1.358       .  S
C2451      C2452   1.405       .  A
C2452      F2453   1.358       .  S
C2457      C2458   1.410       .  A
C2457      F2464   1.358       .  S
C2459      C2460   1.402       .  A
C2459      F2466   1.358       .  S
C2460      C2461   1.407       .  A
C2460      F2465   1.358       .  S
C2461      C2462   1.405       .  A
C2467      C2468   1.412       .  A
C2467      C2472   1.407       .  A
C2467      F5210   1.357       .  S
C2468      C2469   1.413       .  A
C2469      C2470   1.400       .  A
C2469      F2476   1.358       .  S
C2470      C2471   1.408       .  A
C2470      F2475   1.358       .  S
C2471      C2472   1.410       .  A
C2472      F5209   1.356   1_455  S
F2473      C5208   1.356       .  S
F2474      C5203   1.357       .  S
C2477      C2478   1.406       .  A
C2477      C2482   1.401       .  A
C2477      F2484   1.358       .  S
C2478      C2479   1.411       .  A
C2478      C4217   1.488       .  S
C2479      C2480   1.400       .  A
C2479      F5222   1.358       .  S
C2480      C2481   1.403       .  A
C2480      F2485   1.358       .  S
C2481      C2482   1.406       .  A
C2482      F2483   1.354       .  S
F2486      C5215   1.358   1_455  S
C2487      C2488   1.409       .  A
C2487      C2492   1.405       .  A
C2487      F2494   1.358       .  S
C2488      C2489   1.409       .  A
C2489      C2490   1.399       .  A
C2489      F2496   1.358       .  S
C2490      C2491   1.405       .  A
C2490      F2495   1.358       .  S
C2491      C2492   1.408       .  A
C2492      F2493   1.358       .  S
C2497      C2498   1.406       .  A
C2497      C2502   1.397       .  A
C2497      F2504   1.358       .  S
C2498      C2499   1.408       .  A
C2499      C2500   1.405       .  A
C2499      F2506   1.358       .  S
C2500      C2501   1.409       .  A
C2500      F2505   1.358       .  S
C2501      C2502   1.410       .  A
C2502      F2503   1.358       .  S
C2507      C2508   1.407       .  A
C2507      C2512   1.403       .  A
C2507      F2514   1.358       .  S
C2508      C2509   1.404       .  A
C2509      C2510   1.396       .  A
C2509      F2516   1.357       .  S
C2510      C2511   1.411       .  A
C2510      F2515   1.358       .  S
C2511      C2512   1.410       .  A
C2512      F2513   1.357       .  S
C2517      F2524   1.358       .  S
C2518      C2519   1.409       .  A
C2519      C2520   1.393       .  A
C2519      F2526   1.357       .  S
C2520      C2521   1.409       .  A
C2520      F2525   1.359       .  S
C2521      C2522   1.412       .  A
C2527      C2528   1.409       .  A
C2527      C2532   1.403       .  A
C2527      F2534   1.358       .  S
C2528      C2529   1.406       .  A
C2529      C2530   1.397       .  A
C2529      F2536   1.358       .  S
C2530      C2531   1.402       .  A
C2530      F2535   1.354       .  S
C2531      C2532   1.405       .  A
C2532      F2533   1.356       .  S
C2537      C2538   1.406       .  A
C2537      F2544   1.357       .  S
C2538      C2539   1.407       .  A
C2539      C2540   1.404       .  A
C2539      F2546   1.358       .  S
C2540      F2545   1.357       .  S
C2541      C2542   1.404       .  A
C2542      F2543   1.359       .  S
C2547      C2548   1.403       .  A
C2547      C2552   1.390       .  A
C2547      F2554   1.359       .  S
C2548      C2549   1.405       .  A
C2549      C2550   1.397       .  A
C2549      F2556   1.356       .  S
C2550      C2551   1.409       .  A
C2550      F2555   1.358       .  S
C2551      C2552   1.409       .  A
C2552      F2553   1.357       .  S
C2557      C5294   1.405       .  A
C2557      C2562   1.390       .  A
C2557      F2564   1.358       .  S
C2558      C5293   1.405       .  A
C2558      C2559   1.408       .  A
C2559      C2560   1.397       .  A
C2559      F2566   1.358       .  S
C2560      C2561   1.405       .  A
C2560      F2565   1.358       .  S
C2561      C5298   1.405       .  A
C2562      C5297   1.405       .  A
C2562      F2563   1.359       .  S
C2567      C2568   1.406       .  A
C2567      C2572   1.398       .  A
C2567      F2574   1.358       .  S
C2568      C2569   1.407       .  A
C2569      C2570   1.399       .  A
C2569      F2576   1.358       .  S
C2570      C2571   1.405       .  A
C2570      F2575   1.358       .  S
C2571      C2572   1.402       .  A
C2572      F2573   1.353       .  S
C2577      C2578   1.407       .  A
C2577      C2582   1.401       .  A
C2577      F2584   1.358       .  S
C2578      C2579   1.403       .  A
C2579      C2580   1.394       .  A
C2579      F2586   1.358       .  S
C2580      C2581   1.403       .  A
C2580      F2585   1.355       .  S
C2581      C2582   1.404       .  A
C2582      F2583   1.357       .  S
C2587      C2588   1.409       .  A
C2587      C2592   1.396       .  A
C2587      F2594   1.358       .  S
C2588      C2589   1.410       .  A
C2589      C2590   1.404       .  A
C2589      F2596   1.357       .  S
C2590      C2591   1.409       .  A
C2590      F2595   1.358       .  S
C2591      C2592   1.407       .  A
C2592      F2593   1.357       .  S
C2597      C2598   1.408       .  A
C2597      C2602   1.405       .  A
C2597      F2604   1.357       .  S
C2598      C2599   1.402       .  A
C2599      C2600   1.393       .  A
C2599      F2606   1.357       .  S
C2600      C2601   1.410       .  A
C2600      F2605   1.358       .  S
C2601      C2602   1.409       .  A
C2602      F2603   1.357       .  S
C2607      C2608   1.406       .  A
C2607      C2612   1.397       .  A
C2607      F2614   1.358       .  S
C2608      C2609   1.407       .  A
C2609      C2610   1.398       .  A
C2609      F2616   1.353       .  S
C2610      C2611   1.408       .  A
C2610      F2615   1.358       .  S
C2611      C2612   1.411       .  A
C2612      F2613   1.358       .  S
C2617      C2618   1.405       .  A
C2617      C2622   1.401       .  A
C2617      F2624   1.358       .  S
C2618      C2619   1.407       .  A
C2619      C2620   1.391       .  A
C2619      F2626   1.355       .  S
C2620      C2621   1.403       .  A
C2620      F2625   1.359       .  S
C2621      C2622   1.409       .  A
C2622      F2623   1.358       .  S
C2627      C2628   1.411       .  A
C2627      C2632   1.409       .  A
C2627      F5370   1.358   1_455  S
C2628      C2629   1.403       .  A
C2629      C2630   1.386       .  A
C2629      F2636   1.359       .  S
C2630      C2631   1.413       .  A
C2630      F2635   1.354       .  S
C2631      C2632   1.412       .  A
C2632      F2633   1.357       .  S
F2634      C5363   1.358       .  S
C2637      C2638   1.401       .  A
C2637      C2642   1.398       .  A
C2637      F5380   1.358       .  S
C2638      C2639   1.407       .  A
C2639      C2640   1.401       .  A
C2639      F2646   1.358       .  S
C2640      C2641   1.402       .  A
C2640      F2645   1.358       .  S
C2641      C2642   1.403       .  A
C2642      F5379   1.355       .  S
F2643      C5378   1.355   1_455  S
F2644      C5373   1.358   1_455  S
C2647      C2648   1.410       .  A
C2647      C2652   1.404       .  A
C2647      F2654   1.358       .  S
C2648      C2649   1.408       .  A
C2649      C2650   1.391       .  A
C2649      F2656   1.359       .  S
C2650      C2651   1.405       .  A
C2650      F2655   1.354       .  S
C2651      C2652   1.408       .  A
C2652      F2653   1.358       .  S
C2657      C2658   1.408       .  A
C2657      C2662   1.394       .  A
C2657      F2664   1.358       .  S
C2658      C2659   1.411       .  A
C2659      C2660   1.402       .  A
C2659      F2666   1.358       .  S
C2660      C2661   1.407       .  A
C2660      F2665   1.358       .  S
C2661      C2662   1.406       .  A
C2662      F2663   1.355       .  S
C2667      C2668   1.409       .  A
C2667      C2672   1.402       .  A
C2667      F2674   1.357       .  S
C2668      C2669   1.406       .  A
C2669      C2670   1.390       .  A
C2669      F2676   1.359       .  S
C2670      C2671   1.402       .  A
C2670      F2675   1.356       .  S
C2671      C2672   1.405       .  A
C2672      F2673   1.358       .  S
C2677      C2678   1.404       .  A
C2677      C2682   1.396       .  A
C2677      F2684   1.358       .  S
C2678      C2679   1.408       .  A
C2679      C2680   1.397       .  A
C2679      F2686   1.358       .  S
C2680      C2681   1.402       .  A
C2680      F2685   1.358       .  S
C2681      C2682   1.405       .  A
C2682      F2683   1.358       .  S
C2687      C2688   1.411       .  A
C2687      C2692   1.406       .  A
C2687      F2694   1.358       .  S
C2688      C2689   1.406       .  A
C2689      F2696   1.359       .  S
C2690      C2691   1.409       .  A
C2690      F2695   1.356       .  S
C2697      C2698   1.407   1_455  A
C2697      C2702   1.398       .  A
C2697      F2704   1.358       .  S
C2698      C2699   1.404       .  A
C2698      C4118   1.477       .  S
C2699      C2700   1.400   1_655  A
C2699      F5442   1.357       .  S
C2700      C2701   1.405       .  A
C2700      F2705   1.358       .  S
C2701      C2702   1.402       .  A
C2702      F2703   1.356       .  S
F2706      C5435   1.357       .  S
C2707      C2708   1.410       .  A
C2707      C2712   1.405       .  A
C2707      F2714   1.357       .  S
C2708      C2709   1.408       .  A
C2709      C2710   1.395       .  A
C2709      F5452   1.358       .  S
C2710      C2711   1.404       .  A
C2710      F5451   1.352       .  S
C2711      C2712   1.408       .  A
C2712      F2713   1.357       .  S
F2715      C5446   1.352   1_455  S
F2716      C5445   1.358       .  S
C2717      C2718   1.406       .  A
C2717      C2722   1.401       .  A
C2717      F2724   1.358       .  S
C2718      C2719   1.404       .  A
C2719      C2720   1.397       .  A
C2719      F2726   1.355       .  S
C2720      C2721   1.408       .  A
C2720      F2725   1.358       .  S
C2721      C2722   1.409       .  A
C2722      F2723   1.358       .  S
C2727      C2728   1.407       .  A
C2727      C2732   1.404       .  A
C2727      F2734   1.358       .  S
C2728      C2729   1.403       .  A
C2729      C2730   1.397       .  A
C2729      F2736   1.353       .  S
C2730      C2731   1.406       .  A
C2730      F2735   1.358       .  S
C2731      C2732   1.409       .  A
C2732      F2733   1.358       .  S
C2737      C2738   1.404       .  A
C2737      C2742   1.397       .  A
C2737      C4099   1.487       .  S
C2738      C2739   1.420       .  A
C2738      H2743   1.078       .  S
C2739      C2740   1.417       .  A
C2739      C2748   1.515       .  S
C2740      C2741   1.406       .  A
C2740      H2744   1.079       .  S
C2741      C2742   1.399       .  A
C2741      C5457   1.488   1_545  S
C2742      H2745   1.084       .  S
C2746      C2747   1.408       .  A
C2746      C2751   1.400       .  A
C2746      C4076   1.491       .  S
C2747      C2748   1.422       .  A
C2747      H2752   1.078       .  S
C2748      C2749   1.417       .  A
C2749      C2750   1.400       .  A
C2749      H2753   1.078       .  S
C2750      C2751   1.394       .  A
C2755      C2756   1.396       .  A
C2755      C2760   1.393       .  A
C2755      C4046   1.475       .  S
C2756      C2757   1.412       .  A
C2756      H2761   1.079       .  S
C2757      C2758   1.418       .  A
C2757      C2766   1.504       .  S
C2758      C2759   1.406       .  A
C2758      H2762   1.079       .  S
C2759      C2760   1.401       .  A
C2759      C4056   1.489       .  S
C2760      H2763   1.083       .  S
C2764      C2765   1.399       .  A
C2764      C2769   1.397       .  A
C2764      C4036   1.480       .  S
C2765      C2766   1.412       .  A
C2765      H2770   1.078       .  S
C2766      C2767   1.417       .  A
C2767      C2768   1.403       .  A
C2767      H2771   1.079       .  S
C2768      C2769   1.399       .  A
C2768      C4026   1.490       .  S
C2769      H2772   1.083       .  S
C2773      C2774   1.408       .  A
C2773      C2778   1.399       .  A
C2773      C4016   1.490       .  S
C2774      C2775   1.420       .  A
C2774      H2779   1.077       .  S
C2775      C2776   1.420       .  A
C2776      C2777   1.399       .  A
C2776      H2780   1.078       .  S
C2777      C2778   1.388       .  A
C2777      C4006   1.474       .  S
C2778      H2781   1.084       .  S
C2782      C2783   1.399       .  A
C2782      C2787   1.394       .  A
C2782      C3986   1.481       .  S
C2783      C2784   1.416       .  A
C2783      H2788   1.079       .  S
C2784      C2785   1.423       .  A
C2785      C2786   1.411       .  A
C2785      H2789   1.075       .  S
C2786      C2787   1.400       .  A
C2786      C3999   1.500       .  S
C2787      H2790   1.084       .  S
C2791      C2792   1.406   1_556  A
C2791      C2796   1.397       .  A
C2791      C3969   1.491       .  S
C2792      C2793   1.420       .  A
C2792      H2797   1.077   1_554  S
C2793      C2794   1.415       .  A
C2793      C2802   1.511       .  S
C2794      C2795   1.404       .  A
C2794      H2798   1.079       .  S
C2795      C2796   1.398   1_554  A
C2795      C3979   1.490       .  S
C2796      H2799   1.083       .  S
C2800      C2801   1.408       .  A
C2800      C2805   1.399       .  A
C2800      C3956   1.492       .  S
C2801      C2802   1.422       .  A
C2801      H2806   1.080       .  S
C2802      C2803   1.414       .  A
C2803      C2804   1.400       .  A
C2803      H2807   1.079       .  S
C2804      C2805   1.394       .  A
C2804      C3946   1.475       .  S
C2805      H2808   1.084       .  S
C2809      C2810   1.399       .  A
C2809      C3926   1.477       .  S
C2810      C2811   1.413       .  A
C2810      H2815   1.077       .  S
C2811      C2812   1.421       .  A
C2811      C2822   1.513       .  S
C2812      H2816   1.075       .  S
C2813      C2814   1.393   1_455  A
C2813      C3936   1.481   1_455  S
C2814      H2817   1.084       .  S
C2818      C2819   1.395       .  A
C2818      C2823   1.400       .  A
C2818      C3919   1.482       .  S
C2819      C2820   1.394       .  A
C2819      H2824   1.084       .  S
C2820      C2821   1.402       .  A
C2820      C3906   1.481       .  S
C2821      C2822   1.421       .  A
C2821      H2825   1.077       .  S
C2822      C2823   1.414       .  A
C2823      H2826   1.073       .  S
C2827      C2828   1.401       .  A
C2827      C2832   1.409       .  A
C2827      C3889   1.497       .  S
C2828      C2829   1.393       .  A
C2828      H2833   1.083       .  S
C2829      C2830   1.404       .  A
C2829      C3896   1.484       .  S
C2830      C2831   1.418       .  A
C2830      H2834   1.078       .  S
C2831      C2832   1.422       .  A
C2831      C2838   1.519       .  S
C2832      H2835   1.078       .  S
C2836      C2837   1.407       .  A
C2836      C2841   1.398       .  A
C2836      C3869   1.493       .  S
C2837      C2838   1.421       .  A
C2837      H2842   1.078       .  S
C2838      C2839   1.419       .  A
C2839      C2840   1.407       .  A
C2839      H2843   1.077       .  S
C2840      C2841   1.398       .  A
C2840      C5247   1.494   1_545  S
C2841      H2844   1.084       .  S
C2845      C2846   1.408       .  A
C2845      C2850   1.397       .  A
C2845      C3856   1.492       .  S
C2846      C2847   1.424       .  A
C2846      H2851   1.079       .  S
C2847      C2848   1.419       .  A
C2847      C2856   1.520       .  S
C2848      C2849   1.408       .  A
C2848      H2852   1.079       .  S
C2849      C2850   1.397       .  A
C2850      H2853   1.084       .  S
C2854      C2855   1.414       .  A
C2854      C2859   1.404       .  A
C2854      C3836   1.504       .  S
C2855      C2856   1.423       .  A
C2855      H2860   1.079       .  S
C2856      C2857   1.416       .  A
C2857      C2858   1.403       .  A
C2857      H2861   1.079       .  S
C2858      C2859   1.399       .  A
C2858      C3826   1.491       .  S
C2859      H2862   1.082       .  S
C2863      C2864   1.400       .  A
C2863      C2868   1.395       .  A
C2863      C3816   1.477       .  S
C2864      C2865   1.417       .  A
C2864      H2869   1.077       .  S
C2865      C2866   1.420       .  A
C2865      C2874   1.516       .  S
C2866      C2867   1.407       .  A
C2866      H2870   1.079       .  S
C2867      C2868   1.401       .  A
C2867      C3809   1.490       .  S
C2868      H2871   1.084       .  S
C2872      C2873   1.404       .  A
C2872      C2877   1.395       .  A
C2872      C3789   1.485       .  S
C2873      C2874   1.419       .  A
C2873      H2878   1.078       .  S
C2874      C2875   1.422       .  A
C2875      C2876   1.403       .  A
C2875      H2879   1.077       .  S
C2876      C2877   1.393       .  A
C2876      C3799   1.482       .  S
C2877      H2880   1.084       .  S
C2881      C2882   1.392       .  A
C2881      C2886   1.400       .  A
C2881      C3779   1.474       .  S
C2882      C2883   1.396       .  A
C2882      H2887   1.084       .  S
C2883      C2884   1.406       .  A
C2883      C3766   1.484       .  S
C2884      C2885   1.419       .  A
C2884      H2888   1.079       .  S
C2885      C2886   1.415       .  A
C2885      C2894   1.511       .  S
C2886      H2889   1.079       .  S
C2890      C2891   1.396       .  A
C2890      C2895   1.401       .  A
C2890      C3746   1.477       .  S
C2891      C2892   1.397       .  A
C2891      H2896   1.085       .  S
C2892      C2893   1.403       .  A
C2892      C3756   1.478       .  S
C2893      C2894   1.418       .  A
C2893      H2897   1.079       .  S
C2894      C2895   1.416       .  A
C2895      H2898   1.079       .  S
C2899      C2900   1.407   1_546  A
C2899      C2904   1.400   1_556  A
C2899      C3726   1.491       .  S
C2900      C4269   1.419       .  A
C2900      H2905   1.075       .  S
C2901      C4268   1.419       .  A
C2901      C2902   1.416       .  A
C2901      C2910   1.515       .  S
C2902      C4271   1.400       .  A
C2902      H2906   1.078       .  S
C2903      C4270   1.400       .  A
C2903      C2904   1.393   1_565  A
C2903      C3739   1.476       .  S
C2904      H2907   1.084   1_554  S
C2908      C2909   1.401       .  A
C2908      C2913   1.395       .  A
C2908      C3716   1.482       .  S
C2909      C2910   1.418       .  A
C2909      H2914   1.077       .  S
C2910      C2911   1.419       .  A
C2911      C2912   1.406       .  A
C2911      H2915   1.077       .  S
C2912      C2913   1.398       .  A
C2912      C3709   1.488       .  S
C2913      H2916   1.083       .  S
C2917      C2918   1.404       .  A
C2917      C2922   1.396       .  A
C2917      C3686   1.484       .  S
C2918      C2919   1.417       .  A
C2918      H2923   1.080       .  S
C2919      C2920   1.418       .  A
C2919      C2928   1.512       .  S
C2920      C2921   1.408       .  A
C2920      H2924   1.079       .  S
C2921      C2922   1.397       .  A
C2921      C3699   1.491       .  S
C2922      H2925   1.083       .  S
C2926      C2927   1.403       .  A
C2926      C2931   1.393       .  A
C2926      C3679   1.479       .  S
C2927      C2928   1.418       .  A
C2927      H2932   1.079       .  S
C2928      C2929   1.419       .  A
C2929      C2930   1.407       .  A
C2929      H2933   1.080       .  S
C2930      C2931   1.398       .  A
C2931      H2934   1.084       .  S
C2935      C2936   1.398       .  A
C2935      C2940   1.392       .  A
C2935      C3649   1.470       .  S
C2936      C2937   1.416       .  A
C2936      H2941   1.079       .  S
C2937      C2938   1.419       .  A
C2937      C2946   1.513       .  S
C2938      C2939   1.409       .  A
C2938      H2942   1.078       .  S
C2939      C2940   1.399       .  A
C2939      C3656   1.491       .  S
C2940      H2943   1.084       .  S
C2944      C4313   1.405       .  A
C2944      C2949   1.396       .  A
C2944      C3629   1.484       .  S
C2945      C4312   1.405       .  A
C2945      C2946   1.419       .  A
C2945      H2950   1.077       .  S
C2946      C4315   1.418       .  A
C2947      C4314   1.418       .  A
C2947      C2948   1.401       .  A
C2947      H2951   1.079       .  S
C2948      C2949   1.391       .  A
C2948      C3639   1.475       .  S
C2949      H2952   1.085       .  S
C2953      C2954   1.411       .  A
C2953      C2958   1.400       .  A
C2953      C3616   1.501       .  S
C2954      C2955   1.426       .  A
C2954      H2959   1.077       .  S
C2955      C2956   1.417       .  A
C2955      C2964   1.525       .  S
C2956      C2957   1.404       .  A
C2956      H2960   1.073       .  S
C2957      C2958   1.398       .  A
C2957      C3606   1.494       .  S
C2958      H2961   1.083       .  S
C2962      C2963   1.408       .  A
C2962      C2967   1.399       .  A
C2962      C3596   1.497       .  S
C2963      C2964   1.426       .  A
C2963      H2968   1.075       .  S
C2964      C2965   1.418       .  A
C2965      C2966   1.405       .  A
C2965      H2969   1.077       .  S
C2966      C2967   1.397       .  A
C2966      C3586   1.489       .  S
C2967      H2970   1.083       .  S
C2971      C2972   1.398       .  A
C2971      C2976   1.393       .  A
C2971      C3576   1.473       .  S
C2972      C2973   1.414       .  A
C2972      H2977   1.079       .  S
C2973      C2974   1.420       .  A
C2973      C2982   1.508       .  S
C2974      C2975   1.407       .  A
C2974      H2978   1.078       .  S
C2975      C2976   1.395       .  A
C2975      C3566   1.487       .  S
C2976      H2979   1.084       .  S
C2980      C4349   1.401       .  A
C2980      C2985   1.395       .  A
C2980      C3556   1.476       .  S
C2981      C4348   1.401       .  A
C2981      C2982   1.412       .  A
C2981      H2986   1.079       .  S
C2982      C4351   1.416       .  A
C2983      C4350   1.416       .  A
C2983      C2984   1.405       .  A
C2983      H2987   1.079       .  S
C2984      C2985   1.398       .  A
C2984      C3546   1.487       .  S
C2985      H2988   1.083       .  S
C2989      C4358   1.406   1_545  A
C2989      C2994   1.399       .  A
C2989      C3526   1.488       .  S
C2990      C4357   1.406       .  A
C2990      C2991   1.419       .  A
C2990      H2995   1.078       .  S
C2991      C2992   1.417       .  A
C2991      C3000   1.514       .  S
C2992      C2993   1.402       .  A
C2992      H2996   1.079       .  S
C2993      C4362   1.396       .  A
C2993      C3536   1.474       .  S
C2994      C4361   1.396   1_545  A
C2994      H2997   1.084       .  S
C2998      C2999   1.410       .  A
C2998      C3003   1.401       .  A
C2998      C3506   1.493       .  S
C2999      C3000   1.420       .  A
C2999      H3004   1.079       .  S
C3000      C3001   1.416       .  A
C3001      C3002   1.399       .  A
C3001      H3005   1.078       .  S
C3002      C3003   1.393       .  A
C3002      C3519   1.474       .  S
C3003      H3006   1.084       .  S
C3007      C3008   1.402       .  A
C3007      C3012   1.395       .  A
C3007      C3486   1.480       .  S
C3008      C3009   1.418       .  A
C3008      H3013   1.078       .  S
C3009      C3010   1.417       .  A
C3009      C3018   1.515       .  S
C3010      C3011   1.402       .  A
C3010      H3014   1.076       .  S
C3011      C3012   1.398       .  A
C3011      C3499   1.485       .  S
C3012      H3015   1.084       .  S
C3016      C3017   1.403       .  A
C3016      C3021   1.398       .  A
C3016      C3476   1.493       .  S
C3017      C3018   1.421       .  A
C3017      H3022   1.073       .  S
C3018      C3019   1.420       .  A
C3019      C3020   1.403       .  A
C3019      H3023   1.078       .  S
C3020      C3021   1.397       .  A
C3020      C3466   1.487       .  S
C3021      H3024   1.084       .  S
C3025      C3026   1.407   1_556  A
C3025      C3030   1.403   1_556  A
C3025      C3456   1.493       .  S
C3026      C3027   1.416       .  A
C3026      H3031   1.079       .  S
C3027      C3028   1.417       .  A
C3027      C3036   1.510       .  S
C3028      C3029   1.400       .  A
C3028      H3032   1.078       .  S
C3029      C3030   1.394       .  A
C3029      C3449   1.483       .  S
C3030      H3033   1.082       .  S
C3034      C3035   1.401       .  A
C3034      C3039   1.393       .  A
C3034      C3429   1.474       .  S
C3035      H3040   1.078       .  S
C3036      C3037   1.418       .  A
C3037      H3041   1.080       .  S
C3038      C3039   1.395       .  A
C3038      C3436   1.475       .  S
C3039      H3042   1.085       .  S
C3043      C3044   1.406       .  A
C3043      C3048   1.396       .  A
C3043      C3416   1.487       .  S
C3044      C3045   1.420       .  A
C3044      H3049   1.078       .  S
C3045      C3046   1.418       .  A
C3045      C3056   1.515       .  S
C3046      C3047   1.402       .  A
C3046      H3050   1.077       .  S
C3047      C3048   1.391       .  A
C3047      C3406   1.478       .  S
C3048      H3051   1.084       .  S
C3052      C3053   1.393   1_455  A
C3052      C3389   1.481       .  S
C3053      C3054   1.398       .  A
C3053      H3058   1.084       .  S
C3054      C3055   1.405   1_655  A
C3054      C3399   1.490       .  S
C3055      H3059   1.075       .  S
C3056      C3057   1.418       .  A
C3057      H3060   1.079       .  S
O3061     Zr3097   2.454       .  S
O3061      C3072   1.295       .  A
O3062     Zr3096   2.449       .  S
O3062      C3073   1.294       .  A
O3063     Zr3069   2.437       .  S
O3063      C3074   1.293       .  A
O3064     Zr3069   2.441       .  S
O3064      C3075   1.292       .  A
O3065     Zr3099   2.444       .  S
O3065      C3075   1.295       .  A
O3066     Zr3098   2.433       .  S
O3066      C3074   1.291       .  A
O3067     Zr3069   2.443       .  S
O3067      C3073   1.293       .  A
O3068     Zr3069   2.440       .  S
O3068      C3072   1.292       .  A
Zr3069     O3070   2.346       .  S
Zr3069     O3071   2.340       .  S
Zr3069     O3079   2.344       .  S
Zr3069     O3077   2.342       .  S
O3070     Zr3096   2.342       .  S
O3070     Zr3099   2.347       .  S
O3071     Zr3097   2.339       .  S
O3071     Zr3098   2.342       .  S
C3072      C4096   1.480       .  S
C3073      C3849   1.477       .  S
C3074      C3786   1.475       .  S
C3075      C3396   1.485       .  S
H3076      O3077   0.965       .  S
O3077     Zr3096   2.342       .  S
O3077     Zr3098   2.342       .  S
H3078      O3079   0.966       .  S
O3079     Zr3097   2.334       .  S
O3079     Zr3099   2.339       .  S
O3080     Zr3096   2.441       .  S
O3080      C3103   1.294       .  A
O3081     Zr3097   2.449       .  S
O3081      C3104   1.294       .  A
O3082     Zr3098   2.447       .  S
O3082      C3105   1.294       .  A
O3083     Zr3099   2.433       .  S
O3083      C3106   1.292       .  A
O3084     Zr3099   2.452       .  S
O3084      C3107   1.294       .  A
O3085     Zr3098   2.445       .  S
O3085      C3108   1.293       .  A
O3086     Zr3100   2.437       .  S
O3086      C3109   1.291       .  A
O3087     Zr3100   2.428       .  S
O3087      C3110   1.291       .  A
O3088     Zr3098   2.432       .  S
O3088      C3109   1.292       .  A
O3089     Zr3099   2.446       .  S
O3089      C3110   1.294       .  A
O3090     Zr3096   2.430       .  S
O3090      C3105   1.291       .  A
O3091     Zr3097   2.415       .  S
O3091      C3108   1.287       .  A
O3092     Zr3097   2.418       .  S
O3092      C3107   1.289       .  A
O3093     Zr3096   2.448       .  S
O3093      C3106   1.294       .  A
O3094     Zr3100   2.442       .  S
O3094      C3103   1.292       .  A
O3095     Zr3100   2.441       .  S
O3095      C3104   1.293       .  A
Zr3096     O3102   2.342       .  S
Zr3096     O3114   2.340       .  S
Zr3097     O3101   2.337       .  S
Zr3097     O3112   2.340       .  S
Zr3098     O3102   2.337       .  S
Zr3098     O3112   2.335       .  S
Zr3099     O3101   2.341       .  S
Zr3099     O3114   2.344       .  S
Zr3100     O3101   2.345       .  S
Zr3100     O3102   2.335       .  S
Zr3100     O3114   2.343       .  S
Zr3100     O3112   2.335       .  S
C3103      C3966   1.480       .  S
C3104      C3829   1.480       .  S
C3105      C4029   1.481       .  S
C3106      C3459   1.489       .  S
C3107      C4059   1.485       .  S
C3108      C3579   1.460       .  S
C3109      C3419   1.483       .  S
C3110      C3729   1.478       .  S
H3111      O3112   0.965       .  S
H3113      O3114   0.966       .  S
O3115     Zr3151   2.426   1_556  S
O3115      C3126   1.291       .  A
O3116     Zr3150   2.432       .  S
O3116      C3127   1.290       .  A
O3117     Zr3123   2.437       .  S
O3117      C3128   1.291       .  A
O3118     Zr4491   2.441   1_546  S
O3118      C3129   1.293   1_655  A
O3119     Zr4521   2.434   1_546  S
O3120     Zr3152   2.451       .  S
O3120      C3128   1.295       .  A
O3121     Zr4491   2.452   1_545  S
O3121      C3127   1.294       .  A
O3122     Zr3123   2.438   1_556  S
O3122      C3126   1.291       .  A
Zr3123     O4486   2.441   1_554  S
Zr3123     O4489   2.452       .  S
Zr3123     O4492   2.344       .  S
Zr3123     O3125   2.343       .  S
Zr3123     O3133   2.349   1_554  S
Zr3123     O3131   2.340       .  S
O3124     Zr4491   2.344   1_545  S
O3124     Zr3150   2.342       .  S
O3125     Zr3151   2.344       .  S
O3125     Zr3152   2.339       .  S
C3126      C4039   1.469       .  S
C3127      C3446   1.472       .  S
C3128      C3706   1.483       .  S
C3129      C3386   1.466       .  S
H3130      O3131   0.966       .  S
O3131     Zr4518   2.344       .  S
O3131     Zr3152   2.343       .  S
H3132      O3133   0.966       .  S
O3133     Zr3151   2.337   1_556  S
O3134      C3157   1.291       .  A
O3135     Zr3151   2.431       .  S
O3135      C3158   1.290       .  A
O3136     Zr3152   2.433       .  S
O3136      C3159   1.292       .  A
O3137     Zr4521   2.430   1_545  S
O3137      C3160   1.290       .  A
O3138     Zr3153   2.445   1_556  S
O3138      C3161   1.294       .  A
O3139     Zr3152   2.439       .  S
O3139      C3162   1.292       .  A
O3140      C3163   1.290       .  A
O3141     Zr3154   2.435       .  S
O3141      C3164   1.291       .  A
O3142     Zr3152   2.449       .  S
O3142      C3163   1.294       .  A
O3143     Zr3153   2.434       .  S
O3143      C3164   1.291       .  A
O3144     Zr3150   2.439       .  S
O3144      C4527   1.292   1_545  A
O3145     Zr3151   2.439       .  S
O3145      C3162   1.293       .  A
O3146     Zr3151   2.458   1_556  S
O3147      C3160   1.293       .  A
O3148     Zr3154   2.457       .  S
O3148      C4525   1.295       .  A
O3149     Zr3154   2.446       .  S
Zr3150     O4499   2.344   1_545  S
Zr3150     O4524   2.337   1_545  S
Zr3151     O3166   2.343       .  S
Zr3152     O3156   2.342       .  S
Zr3152     O3166   2.341       .  S
Zr3153     O4487   2.434   1_554  S
Zr3153     O4505   2.430       .  S
Zr3153     O3155   2.339       .  S
Zr3153     O3168   2.341       .  S
Zr3154     O3155   2.342       .  S
Zr3154     O3168   2.335       .  S
O3156     Zr4518   2.337       .  S
C3157      C3886   1.490       .  S
C3157      O4516   1.295   1_545  A
C3158      C3439   1.469       .  S
C3159      C3626   1.474       .  S
C3159      O4512   1.292       .  A
C3160      C3949   1.468       .  S
C3161      C3839   1.495       .  S
C3162      C3976   1.482       .  S
C3163      C3479   1.482       .  S
C3164      C3736   1.463       .  S
H3165      O3166   0.965       .  S
H3167      O4536   0.965   1_545  S
O3168      H4535   0.965       .  S
O3169     Zr3205   2.438       .  S
O3169      C3180   1.293       .  A
O3170     Zr3204   2.436       .  S
O3170      C3181   1.292       .  A
O3171     Zr3177   2.437       .  S
O3171      C3182   1.292       .  A
O3172     Zr3177   2.444       .  S
O3172      C3183   1.293       .  A
O3173     Zr3207   2.431       .  S
O3173      C3183   1.291       .  A
O3174     Zr3206   2.451       .  S
O3174      C3182   1.294       .  A
O3175     Zr3177   2.443       .  S
O3175      C3181   1.293       .  A
O3176     Zr3177   2.440       .  S
O3176      C3180   1.292       .  A
Zr3177     O3178   2.336       .  S
Zr3177     O3179   2.341       .  S
Zr3177     O3187   2.342       .  S
Zr3177     O3185   2.348       .  S
O3178     Zr3204   2.335       .  S
O3178     Zr3207   2.333       .  S
O3179     Zr3205   2.342       .  S
O3179     Zr3206   2.345       .  S
C3180      C4019   1.482       .  S
C3181      C3589   1.475       .  S
C3182      C3529   1.480       .  S
C3183      C3669   1.482       .  S
H3184      O3185   0.966       .  S
O3185     Zr3204   2.344       .  S
O3185     Zr3206   2.344       .  S
H3186      O3187   0.966       .  S
O3187     Zr3205   2.346       .  S
O3187     Zr3207   2.342       .  S
O3188     Zr3204   2.445       .  S
O3188      C3211   1.294       .  A
O3189     Zr3205   2.444       .  S
O3189      C3212   1.293       .  A
O3190     Zr3206   2.440       .  S
O3190      C3213   1.292       .  A
O3191     Zr3207   2.435       .  S
O3191      C3214   1.291       .  A
O3192     Zr3207   2.429       .  S
O3192      C3215   1.290       .  A
O3193     Zr3206   2.431       .  S
O3193      C3216   1.291       .  A
O3194     Zr3208   2.429       .  S
O3194      C3217   1.290       .  A
O3195     Zr3208   2.433       .  S
O3195      C3218   1.291       .  A
O3196     Zr3206   2.454       .  S
O3196      C3217   1.295       .  A
O3197     Zr3207   2.439       .  S
O3197      C3218   1.292       .  A
O3198     Zr3204   2.427       .  S
O3198      C3213   1.291       .  A
O3199     Zr3205   2.447       .  S
O3199      C3216   1.294       .  A
O3200     Zr3205   2.454       .  S
O3200      C3215   1.295       .  A
O3201     Zr3204   2.431       .  S
O3201      C3214   1.289       .  A
O3202     Zr3208   2.444       .  S
O3202      C3211   1.293       .  A
O3203     Zr3208   2.439       .  S
O3203      C3212   1.293       .  A
Zr3204     O3210   2.335       .  S
Zr3204     O3222   2.340       .  S
Zr3205     O3209   2.336       .  S
Zr3205     O3220   2.349       .  S
Zr3206     O3210   2.338       .  S
Zr3206     O3220   2.349       .  S
Zr3207     O3209   2.338       .  S
Zr3207     O3222   2.336       .  S
Zr3208     O3209   2.337       .  S
Zr3208     O3210   2.339       .  S
Zr3208     O3222   2.340       .  S
Zr3208     O3220   2.341       .  S
C3211      C3866   1.483       .  S
C3212      C3609   1.484       .  S
C3213      C3909   1.473       .  S
C3214      C3646   1.461       .  S
C3215      C3939   1.472       .  S
C3216      C3776   1.470       .  S
C3217      C3696   1.482       .  S
C3218      C3489   1.470       .  S
H3219      O3220   0.966       .  S
H3221      O3222   0.966       .  S
O3223     Zr3259   2.438       .  S
O3223      C3234   1.292       .  A
O3224     Zr3258   2.447       .  S
O3224      C3235   1.294       .  A
O3225     Zr3231   2.435       .  S
O3225      C3236   1.292       .  A
O3226     Zr3231   2.433       .  S
O3226      C3237   1.291       .  A
O3227     Zr3261   2.430       .  S
O3227      C3237   1.290       .  A
O3228     Zr3260   2.432       .  S
O3228      C3236   1.292       .  A
O3229     Zr3231   2.446       .  S
O3229      C3235   1.293       .  A
O3230     Zr3231   2.445       .  S
O3230      C3234   1.294       .  A
Zr3231     O3232   2.332       .  S
Zr3231     O3233   2.338       .  S
Zr3231     O3241   2.351       .  S
Zr3231     O3239   2.340       .  S
O3232     Zr3258   2.331       .  S
O3232     Zr3261   2.339       .  S
O3233     Zr3259   2.339       .  S
O3233     Zr3260   2.338       .  S
C3234      C4086   1.479       .  S
C3235      C3859   1.482       .  S
C3236      C3549   1.480       .  S
C3237      C4049   1.464       .  S
H3238      O3239   0.966       .  S
O3239     Zr3258   2.335       .  S
O3239     Zr3260   2.341       .  S
H3240      O3241   0.966       .  S
O3241     Zr3259   2.346       .  S
O3241     Zr3261   2.350       .  S
O3242     Zr3258   2.437       .  S
O3242      C3265   1.291       .  A
O3243     Zr3259   2.436       .  S
O3243      C3266   1.292       .  A
O3244     Zr3260   2.439       .  S
O3244      C3267   1.291       .  A
O3245     Zr3261   2.448       .  S
O3245      C3268   1.294       .  A
O3246     Zr3261   2.457       .  S
O3246      C3269   1.295       .  A
O3247     Zr3260   2.438       .  S
O3247      C3270   1.293       .  A
O3248     Zr3262   2.436       .  S
O3248      C3271   1.293       .  A
O3249     Zr3262   2.432       .  S
O3249      C3272   1.291       .  A
O3250     Zr3260   2.429       .  S
O3250      C3271   1.290       .  A
O3251     Zr3261   2.446       .  S
O3251      C3272   1.294       .  A
O3252     Zr3258   2.432       .  S
O3252      C3267   1.292       .  A
O3253     Zr3259   2.442       .  S
O3253      C3270   1.293       .  A
O3254     Zr3259   2.430       .  S
O3254      C3269   1.291       .  A
O3255     Zr3258   2.425       .  S
O3255      C3268   1.289       .  A
O3256     Zr3262   2.440       .  S
O3256      C3265   1.292       .  A
O3257     Zr3262   2.442       .  S
O3257      C3266   1.292       .  A
Zr3258     O3264   2.335       .  S
Zr3258     O3276   2.345       .  S
Zr3259     O3263   2.340       .  S
Zr3259     O3274   2.337       .  S
Zr3260     O3264   2.338       .  S
Zr3260     O3274   2.339       .  S
Zr3261     O3263   2.336       .  S
Zr3261     O3276   2.349       .  S
Zr3262     O3263   2.338       .  S
Zr3262     O3264   2.337       .  S
Zr3262     O3276   2.344       .  S
Zr3262     O3274   2.344       .  S
C3265      C4069   1.468       .  S
C3266      C3749   1.470       .  S
C3267      C3796   1.472       .  S
C3268      C3409   1.468       .  S
C3269      C3806   1.485       .  S
C3270      C3509   1.483       .  S
C3271      C3989   1.473       .  S
C3272      C3569   1.477       .  S
H3273      O3274   0.966       .  S
H3275      O3276   0.966       .  S
O3277     Zr3313   2.439       .  S
O3277      C3288   1.293       .  A
O3278     Zr3312   2.429       .  S
O3278      C3289   1.289       .  A
O3279     Zr3285   2.438       .  S
O3279      C3290   1.293       .  A
O3280     Zr3285   2.443       .  S
O3280      C3291   1.293       .  A
O3281     Zr3315   2.426       .  S
O3281      C3291   1.290       .  A
O3282     Zr3314   2.438       .  S
O3282      C3290   1.292       .  A
O3283     Zr3285   2.445       .  S
O3283      C3289   1.293       .  A
O3284     Zr3285   2.447       .  S
O3284      C3288   1.294       .  A
Zr3285     O3286   2.339       .  S
Zr3285     O3287   2.341       .  S
Zr3285     O3295   2.347       .  S
Zr3285     O3293   2.345       .  S
O3286     Zr3312   2.338       .  S
O3286     Zr3315   2.339       .  S
O3287     Zr3313   2.340       .  S
O3287     Zr3314   2.339       .  S
C3288      C3959   1.485       .  S
C3289      C3636   1.465       .  S
C3290      C3719   1.472       .  S
C3291      C3496   1.476       .  S
H3292      O3293   0.966       .  S
O3293     Zr3312   2.335       .  S
O3293     Zr3314   2.339       .  S
H3294      O3295   0.966       .  S
O3295     Zr3313   2.344       .  S
O3295     Zr3315   2.343       .  S
O3296     Zr3312   2.420       .  S
O3296      C3319   1.290       .  A
O3297     Zr3313   2.439       .  S
O3297      C3320   1.292       .  A
O3298     Zr3314   2.444       .  S
O3298      C3321   1.293       .  A
O3299     Zr3315   2.448       .  S
O3299      C3322   1.295       .  A
O3300     Zr3315   2.438       .  S
O3300      C3323   1.292       .  A
O3301     Zr3314   2.436       .  S
O3301      C3324   1.291       .  A
O3302     Zr3316   2.446       .  S
O3302      C3325   1.293       .  A
O3303     Zr3316   2.453       .  S
O3303      C3326   1.295       .  A
O3304     Zr3314   2.431       .  S
O3304      C3325   1.292       .  A
O3305     Zr3315   2.429       .  S
O3305      C3326   1.289       .  A
O3306     Zr3312   2.440       .  S
O3306      C3321   1.293       .  A
O3307     Zr3313   2.443       .  S
O3307      C3324   1.292       .  A
O3308     Zr3313   2.450       .  S
O3308      C3323   1.294       .  A
O3309     Zr3312   2.449       .  S
O3309      C3322   1.294       .  A
O3310     Zr3316   2.431       .  S
O3310      C3319   1.291       .  A
O3311     Zr3316   2.442       .  S
O3311      C3320   1.293       .  A
Zr3312     O3318   2.340       .  S
Zr3312     O3330   2.339       .  S
Zr3313     O3317   2.343       .  S
Zr3313     O3328   2.343       .  S
Zr3314     O3318   2.335       .  S
Zr3314     O3328   2.340       .  S
Zr3315     O3317   2.342       .  S
Zr3315     O3330   2.336       .  S
Zr3316     O3317   2.342       .  S
Zr3316     O3318   2.343       .  S
Zr3316     O3330   2.343       .  S
Zr3316     O3328   2.345       .  S
C3319      C3916   1.469       .  S
C3320      C3659   1.480       .  S
C3321      C3876   1.480       .  S
C3322      C3619   1.489       .  S
C3323      C3899   1.475       .  S
C3324      C3426   1.468       .  S
C3325      C3469   1.481       .  S
C3326      C3676   1.471       .  S
H3327      O3328   0.966       .  S
H3329      O3330   0.966       .  S
O3331     Zr3367   2.446       .  S
O3332     Zr3366   2.447       .  S
O3332      C3343   1.293       .  A
O3333     Zr3339   2.440       .  S
O3333      C3344   1.292       .  A
O3334     Zr3339   2.438       .  S
O3334      C3345   1.292       .  A
O3335      C3345   1.292       .  A
O3336     Zr3368   2.443       .  S
O3336      C4712   1.293       .  A
O3337     Zr3339   2.430       .  S
O3337      C3343   1.291       .  A
O3338     Zr3339   2.442       .  S
O3338      C4710   1.292       .  A
Zr3339     O3340   2.344       .  S
Zr3339     O4709   2.340       .  S
Zr3339     O3349   2.341       .  S
Zr3339     O3347   2.347       .  S
O3340     Zr3366   2.342       .  S
O3341     Zr4707   2.340       .  S
O3341     Zr3368   2.346       .  S
C3342      C4079   1.483       .  S
C3342      O4706   1.292   1_545  A
C3343      C3759   1.472       .  S
C3344      C3539   1.468       .  S
C3344      O4704   1.293       .  A
C3345      C3819   1.468       .  S
H3346      O3347   0.966       .  S
O3347     Zr3366   2.336       .  S
O3347     Zr4736   2.345       .  S
H3348      O3349   0.966       .  S
O3350     Zr3366   2.422       .  S
O3351     Zr3367   2.428       .  S
O3351      C3374   1.290       .  A
O3352     Zr4736   2.436       .  S
O3352      C3375   1.292       .  A
O3353      C3376   1.291       .  A
O3354     Zr3369   2.432       .  S
O3354      C3377   1.291       .  A
O3355      C3378   1.293       .  A
O3356     Zr4738   2.441   1_545  S
O3356      C3379   1.293       .  A
O3357     Zr3370   2.446       .  S
O3357      C3380   1.292       .  A
O3358      C3379   1.292       .  A
O3359     Zr3369   2.442       .  S
O3359      C3380   1.292       .  A
O3360     Zr3366   2.460       .  S
O3360      C3375   1.296       .  A
O3361     Zr3367   2.429       .  S
O3361      C3378   1.292       .  A
O3362     Zr3367   2.437       .  S
O3362      C4745   1.292   1_545  A
O3363     Zr3366   2.445       .  S
O3363      C3376   1.293       .  A
O3364     Zr3370   2.433       .  S
O3364      C3373   1.291       .  A
O3365     Zr4738   2.448   1_545  S
O3365      C3374   1.294       .  A
Zr3366     O3372   2.344       .  S
Zr3367     O4739   2.336   1_545  S
Zr3367     O3382   2.339       .  S
Zr3368     O4720   2.436       .  S
Zr3368     O4715   2.345       .  S
Zr3368     O4740   2.340       .  S
Zr3369     O3371   2.336       .  S
Zr3369     O3384   2.336       .  S
Zr3370     O4724   2.441       .  S
Zr3370     O4733   2.448       .  S
Zr3370     O3371   2.332       .  S
Zr3370     O3384   2.342       .  S
Zr3370     O4750   2.337       .  S
O3371     Zr4735   2.336       .  S
O3372     Zr4736   2.340       .  S
C3373      C3929   1.467       .  S
C3374      C3769   1.476       .  S
C3375      C3599   1.488       .  S
C3376      C4009   1.467       .  S
C3377      C3559   1.470       .  S
C3377      O4730   1.292       .  A
C3378      C3996   1.483       .  S
C3379      C3689   1.476       .  S
C3380      C3516   1.471       .  S
H3381      O3382   0.966       .  S
O3382     Zr4738   2.337   1_545  S
H3383      O3384   0.965       .  S
C3385      C3386   1.402   1_655  A
C3385      C3390   1.396       .  A
C3385      F4760   1.358   1_545  S
C3387      C3388   1.400       .  A
C3387      F3394   1.357       .  S
C3388      F3393   1.358       .  S
C3389      C3390   1.407   1_455  A
C3390      F3391   1.358       .  S
F3392      C4753   1.358       .  S
C3395      C3396   1.410       .  A
C3395      C3400   1.408       .  A
C3395      F3402   1.357       .  S
C3396      C3397   1.402       .  A
C3397      C3398   1.388       .  A
C3397      F3404   1.349       .  S
C3398      C3399   1.407       .  A
C3398      F3403   1.359       .  S
C3399      C3400   1.410       .  A
C3400      F3401   1.357       .  S
C3405      C3406   1.407       .  A
C3405      C3410   1.397       .  A
C3405      F3412   1.358       .  S
C3406      C3407   1.407       .  A
C3407      C3408   1.398       .  A
C3407      F3414   1.358       .  S
C3408      C3409   1.404       .  A
C3408      F3413   1.358       .  S
C3409      C3410   1.403       .  A
C3410      F3411   1.358       .  S
C3415      C3416   1.408       .  A
C3415      C3420   1.391       .  A
C3415      F3422   1.359       .  S
C3416      C3417   1.407       .  A
C3417      C3418   1.402       .  A
C3417      F3424   1.358       .  S
C3418      C3419   1.410       .  A
C3418      F3423   1.357       .  S
C3419      C3420   1.407       .  A
C3420      F3421   1.357       .  S
C3425      C3426   1.405       .  A
C3425      C3430   1.401       .  A
C3425      F3432   1.356       .  S
C3426      C3427   1.401       .  A
C3427      C3428   1.396       .  A
C3427      F3434   1.356       .  S
C3428      C3429   1.405       .  A
C3428      F3433   1.358       .  S
C3429      C3430   1.404       .  A
C3430      F3431   1.358       .  S
C3435      C3440   1.394       .  A
C3435      F3442   1.358       .  S
C3436      C3437   1.406       .  A
C3437      C3438   1.402       .  A
C3437      F3444   1.358       .  S
C3438      F3443   1.358       .  S
C3439      C3440   1.402       .  A
C3440      F3441   1.355       .  S
C3445      C3446   1.403       .  A
C3445      C3450   1.399       .  A
C3445      F3452   1.358   1_655  S
C3446      C3447   1.404       .  A
C3447      C3448   1.400       .  A
C3447      F3454   1.356       .  S
C3448      C3449   1.407       .  A
C3448      F3453   1.358       .  S
C3449      C3450   1.408       .  A
C3450      F3451   1.358   1_655  S
C3455      C3456   1.412       .  A
C3455      C3460   1.405       .  A
C3455      F3462   1.357       .  S
C3456      C3457   1.407       .  A
C3457      C3458   1.389       .  A
C3457      F3464   1.358       .  S
C3458      C3459   1.406       .  A
C3458      F3463   1.351       .  S
C3459      C3460   1.410       .  A
C3460      F3461   1.356       .  S
C3465      C3470   1.388       .  A
C3467      C3468   1.407       .  A
C3468      C3469   1.410       .  A
C3468      F3473   1.358       .  S
C3469      C3470   1.405       .  A
C3470      F3471   1.356       .  S
C3475      C3476   1.412       .  A
C3475      C3480   1.406       .  A
C3475      F3482   1.357       .  S
C3476      C3477   1.409       .  A
C3477      C3478   1.388       .  A
C3477      F3484   1.357       .  S
C3478      C3479   1.405       .  A
C3479      C3480   1.409       .  A
C3480      F3481   1.358       .  S
C3485      C3486   1.407       .  A
C3485      C3490   1.399       .  A
C3485      F3492   1.358       .  S
C3486      C3487   1.407       .  A
C3487      C3488   1.397       .  A
C3487      F3494   1.358       .  S
C3488      C3489   1.404       .  A
C3488      F3493   1.358       .  S
C3489      C3490   1.404       .  A
C3490      F3491   1.358       .  S
C3495      C3496   1.406       .  A
C3495      C3500   1.394       .  A
C3495      F3502   1.355       .  S
C3496      C3497   1.405       .  A
C3497      C3498   1.400       .  A
C3497      F3504   1.357       .  S
C3498      C3499   1.410       .  A
C3498      F3503   1.358       .  S
C3499      C3500   1.406       .  A
C3500      F3501   1.358       .  S
C3505      C3506   1.409       .  A
C3505      C3510   1.402       .  A
C3505      F3512   1.358       .  S
C3506      C3507   1.410       .  A
C3507      C3508   1.396       .  A
C3507      F3514   1.358       .  S
C3508      C3509   1.406       .  A
C3508      F3513   1.358       .  S
C3509      C3510   1.408       .  A
C3510      F3511   1.356       .  S
C3515      C3516   1.402       .  A
C3515      C3520   1.398       .  A
C3515      F3522   1.356       .  S
C3516      C3517   1.405       .  A
C3517      C3518   1.401       .  A
C3517      F3524   1.354       .  S
C3518      C3519   1.403       .  A
C3518      F3523   1.358       .  S
C3519      C3520   1.404       .  A
C3520      F3521   1.358       .  S
C3525      C3526   1.408       .  A
C3525      C3530   1.399       .  A
C3525      F3532   1.358       .  S
C3526      C3527   1.409       .  A
C3527      C3528   1.402       .  A
C3527      F4902   1.358   1_545  S
C3528      C3529   1.406       .  A
C3528      F3533   1.357       .  S
C3529      C3530   1.407       .  A
C3530      F3531   1.358       .  S
F3534      C4895   1.358       .  S
C3535      C3536   1.403       .  A
C3535      C3540   1.397       .  A
C3535      F3542   1.358       .  S
C3536      C4905   1.406       .  A
C3537      C4904   1.406       .  A
C3537      C3538   1.402       .  A
C3537      F3544   1.358   1_565  S
C3538      C4907   1.403       .  A
C3538      F3543   1.357   1_565  S
C3539      C4906   1.403       .  A
C3539      C3540   1.404       .  A
C3540      F3541   1.357       .  S
C3545      C3546   1.408       .  A
C3545      C3550   1.396       .  A
C3545      F3552   1.358       .  S
C3546      C3547   1.410       .  A
C3547      C3548   1.397       .  A
C3547      F3554   1.358       .  S
C3548      C3549   1.407       .  A
C3548      F3553   1.358       .  S
C3549      C3550   1.407       .  A
C3550      F3551   1.356       .  S
C3555      C3556   1.407       .  A
C3555      C3560   1.398       .  A
C3555      F3562   1.358       .  S
C3556      C3557   1.405       .  A
C3557      C3558   1.393       .  A
C3557      F3564   1.358       .  S
C3558      C3559   1.402       .  A
C3558      F3563   1.352       .  S
C3559      C3560   1.405       .  A
C3560      F3561   1.357       .  S
C3565      C3566   1.412       .  A
C3565      C3570   1.397       .  A
C3565      F3572   1.358       .  S
C3566      C3567   1.406       .  A
C3567      C3568   1.399       .  A
C3567      F3574   1.358       .  S
C3568      C3569   1.408       .  A
C3568      F3573   1.356       .  S
C3569      C3570   1.403       .  A
C3570      F3571   1.358       .  S
C3575      C3576   1.406       .  A
C3575      C3580   1.398       .  A
C3575      F3582   1.358       .  S
C3576      C3577   1.406       .  A
C3577      C3578   1.392       .  A
C3577      F3584   1.358       .  S
C3578      C3579   1.400       .  A
C3578      F3583   1.356       .  S
C3579      C3580   1.403       .  A
C3580      F3581   1.358       .  S
C3585      C4954   1.410   1_545  A
C3585      C3590   1.399       .  A
C3585      F3592   1.358       .  S
C3586      C4953   1.410       .  A
C3586      C3587   1.409       .  A
C3587      C4956   1.399       .  A
C3587      F3594   1.358       .  S
C3588      C4955   1.399       .  A
C3588      C3589   1.405   1_565  A
C3588      F3593   1.358       .  S
C3589      C3590   1.405       .  A
C3590      F3591   1.358       .  S
C3595      C3596   1.409       .  A
C3595      C3600   1.396       .  A
C3595      F3602   1.358       .  S
C3596      C3597   1.411       .  A
C3597      C3598   1.408       .  A
C3597      F3604   1.358       .  S
C3598      C3599   1.409       .  A
C3598      F3603   1.358       .  S
C3599      C3600   1.407       .  A
C3600      F3601   1.357       .  S
C3605      C3606   1.411       .  A
C3605      C3610   1.396       .  A
C3605      F3612   1.358       .  S
C3606      C3607   1.410       .  A
C3607      C3608   1.401       .  A
C3607      F3614   1.357       .  S
C3608      C3609   1.406       .  A
C3608      F3613   1.354       .  S
C3609      C3610   1.404       .  A
C3610      F3611   1.355       .  S
C3615      C3616   1.412       .  A
C3615      C3620   1.398       .  A
C3615      F3622   1.358       .  S
C3616      C3617   1.411       .  A
C3617      C3618   1.407       .  A
C3617      F3624   1.357       .  S
C3618      C3619   1.410       .  A
C3618      F3623   1.358       .  S
C3619      C3620   1.406       .  A
C3620      F3621   1.359       .  S
C3625      C4994   1.408   1_545  A
C3625      C3630   1.402       .  A
C3625      F3632   1.358       .  S
C3626      C4993   1.408       .  A
C3626      C3627   1.404       .  A
C3627      C3628   1.393       .  A
C3627      F3634   1.359       .  S
C3628      C3629   1.409       .  A
C3628      F3633   1.359       .  S
C3629      C4998   1.408       .  A
C3630      C4997   1.408       .  A
C3630      F3631   1.358       .  S
C3635      C3636   1.402       .  A
C3635      C3640   1.399       .  A
C3635      F3642   1.357       .  S
C3636      C3637   1.403       .  A
C3637      C3638   1.397       .  A
C3637      F3644   1.357       .  S
C3638      C3639   1.404       .  A
C3638      F3643   1.358       .  S
C3639      C3640   1.407       .  A
C3640      F3641   1.358       .  S
C3645      C3646   1.401       .  A
C3645      C3650   1.395       .  A
C3645      F3652   1.358       .  S
C3646      C3647   1.404       .  A
C3647      C3648   1.400       .  A
C3647      F3654   1.358       .  S
C3648      C3649   1.404       .  A
C3648      F3653   1.357       .  S
C3649      C3650   1.404       .  A
C3650      F3651   1.358       .  S
C3655      C3656   1.411       .  A
C3655      F3662   1.358       .  S
C3656      C3657   1.409       .  A
C3657      F3664   1.358       .  S
C3658      C3659   1.406       .  A
C3658      F3663   1.357       .  S
C3659      C3660   1.406       .  A
C3660      F3661   1.358       .  S
C3665      C3666   1.409       .  A
C3665      C3670   1.404       .  A
C3665      F3672   1.358       .  S
C3666      C3667   1.408       .  A
C3667      C3668   1.393       .  A
C3667      F3674   1.358       .  S
C3668      C3669   1.407       .  A
C3668      F3673   1.359       .  S
C3669      C3670   1.409       .  A
C3670      F3671   1.358       .  S
C3675      C3676   1.404       .  A
C3675      C3680   1.401       .  A
C3675      F3682   1.358       .  S
C3676      C3677   1.403       .  A
C3677      C3678   1.399       .  A
C3677      F3684   1.356       .  S
C3678      C3679   1.406       .  A
C3678      F3683   1.358       .  S
C3679      C3680   1.407       .  A
C3680      F3681   1.358       .  S
C3685      C3686   1.408       .  A
C3685      C3690   1.396       .  A
C3685      F3692   1.358       .  S
C3686      C3687   1.407       .  A
C3687      C3688   1.401       .  A
C3688      C3689   1.407       .  A
C3689      C3690   1.405       .  A
C3690      F3691   1.358       .  S
C3695      C3696   1.407       .  A
C3695      C3700   1.397       .  A
C3695      F3702   1.355       .  S
C3696      C3697   1.406       .  A
C3697      C3698   1.401       .  A
C3697      F3704   1.358       .  S
C3698      C3699   1.412       .  A
C3698      F3703   1.358       .  S
C3699      C3700   1.407       .  A
C3700      F3701   1.358       .  S
C3705      C3706   1.407       .  A
C3705      C3710   1.401       .  A
C3705      F3712   1.356       .  S
C3706      C3707   1.404       .  A
C3707      C3708   1.397       .  A
C3707      F3714   1.352       .  S
C3708      C3709   1.408       .  A
C3708      F3713   1.358       .  S
C3709      C3710   1.409       .  A
C3710      F3711   1.358       .  S
C3715      C3716   1.407       .  A
C3715      C3720   1.396       .  A
C3715      F3722   1.358       .  S
C3716      C3717   1.408       .  A
C3717      C3718   1.400       .  A
C3717      F3724   1.358       .  S
C3718      C3719   1.405       .  A
C3718      F3723   1.358       .  S
C3719      C3720   1.404       .  A
C3720      F3721   1.358       .  S
C3725      C3726   1.410       .  A
C3725      C3730   1.393       .  A
C3725      F3732   1.358       .  S
C3726      C3727   1.410       .  A
C3727      C3728   1.402       .  A
C3727      F3734   1.357       .  S
C3728      C3729   1.407       .  A
C3728      F3733   1.358       .  S
C3729      C3730   1.405       .  A
C3730      F3731   1.359       .  S
C3735      C5104   1.403   1_545  A
C3735      C3740   1.399       .  A
C3735      F3742   1.358       .  S
C3736      C5103   1.403       .  A
C3736      C3737   1.402       .  A
C3737      C3738   1.397       .  A
C3737      F3744   1.358       .  S
C3738      C5107   1.405       .  A
C3738      F3743   1.358       .  S
C3739      C5106   1.405       .  A
C3739      C3740   1.406   1_565  A
C3740      F3741   1.358       .  S
C3745      C3746   1.407       .  A
C3745      C3750   1.401       .  A
C3745      F3752   1.358       .  S
C3746      C3747   1.404       .  A
C3747      C3748   1.396       .  A
C3747      F3754   1.358       .  S
C3748      C3749   1.404       .  A
C3748      F3753   1.356       .  S
C3749      C3750   1.404       .  A
C3750      F3751   1.358       .  S
C3755      C3756   1.403       .  A
C3755      C3760   1.395       .  A
C3755      F3762   1.358       .  S
C3756      C3757   1.408       .  A
C3757      C3758   1.403       .  A
C3757      F3764   1.358       .  S
C3758      C3759   1.405       .  A
C3758      F3763   1.358       .  S
C3759      C3760   1.405       .  A
C3760      F3761   1.358       .  S
C3765      C3766   1.407       .  A
C3765      C3770   1.399       .  A
C3765      F3772   1.358       .  S
C3766      C3767   1.408       .  A
C3767      C3768   1.397       .  A
C3767      F3774   1.358       .  S
C3768      C3769   1.405       .  A
C3768      F3773   1.356       .  S
C3769      C3770   1.407       .  A
C3770      F3771   1.358       .  S
C3775      C3776   1.403       .  A
C3775      C3780   1.397       .  A
C3775      F3782   1.352       .  S
C3776      C3777   1.404       .  A
C3777      C3778   1.397       .  A
C3777      F3784   1.358       .  S
C3778      C3779   1.406       .  A
C3778      F3783   1.358       .  S
C3779      C3780   1.403       .  A
C3780      F3781   1.358       .  S
C3785      C3786   1.408       .  A
C3785      C3790   1.402       .  A
C3785      F3792   1.358       .  S
C3786      C3787   1.404       .  A
C3787      C3788   1.393       .  A
C3787      F3794   1.359       .  S
C3788      C3789   1.409       .  A
C3788      F3793   1.358       .  S
C3789      C3790   1.407       .  A
C3790      F3791   1.358       .  S
C3795      C3796   1.402       .  A
C3795      F3802   1.359       .  S
C3797      C3798   1.405   1_455  A
C3798      C3799   1.407       .  A
C3798      F3803   1.357       .  S
C3799      C3800   1.408       .  A
C3800      F3801   1.358       .  S
C3805      C3806   1.408       .  A
C3805      C3810   1.395       .  A
C3805      F3812   1.359       .  S
C3806      C3807   1.408       .  A
C3807      C3808   1.406       .  A
C3807      F3814   1.358       .  S
C3808      C3809   1.410       .  A
C3808      F3813   1.358       .  S
C3809      C3810   1.406       .  A
C3810      F3811   1.358       .  S
C3815      C3816   1.404       .  A
C3815      C3820   1.399       .  A
C3815      F3822   1.358       .  S
C3816      C3817   1.406       .  A
C3817      C3818   1.400       .  A
C3817      F3824   1.358       .  S
C3818      C3819   1.403       .  A
C3818      F3823   1.358       .  S
C3819      C3820   1.405       .  A
C3820      F3821   1.358       .  S
C3825      C3826   1.410       .  A
C3825      C5198   1.400       .  A
C3825      F3832   1.358       .  S
C3826      C5195   1.409       .  A
C3827      C5194   1.409   1_545  A
C3827      C3828   1.402       .  A
C3827      F3834   1.358       .  S
C3828      C3829   1.407       .  A
C3828      F3833   1.358       .  S
C3829      C3830   1.405   1_545  A
C3830      C5193   1.400       .  A
C3830      F5199   1.358       .  S
F3831      C5198   1.358       .  S
C3835      C3836   1.412       .  A
C3835      C3840   1.407       .  A
C3836      C3837   1.413       .  A
C3837      C3838   1.400       .  A
C3837      F3844   1.358       .  S
C3838      C3839   1.408       .  A
C3838      F3843   1.358       .  S
C3839      C3840   1.410       .  A
C3845      C3846   1.406       .  A
C3845      C3850   1.401       .  A
C3845      F3852   1.358       .  S
C3846      C3847   1.411       .  A
C3847      C3848   1.400       .  A
C3848      C3849   1.403       .  A
C3848      F3853   1.358       .  S
C3849      C3850   1.406       .  A
C3850      F3851   1.354       .  S
C3855      C3856   1.409       .  A
C3855      C3860   1.405       .  A
C3855      F3862   1.358       .  S
C3856      C3857   1.409       .  A
C3857      C3858   1.399       .  A
C3857      F3864   1.358       .  S
C3858      C3859   1.405       .  A
C3858      F3863   1.358       .  S
C3859      C3860   1.408       .  A
C3860      F3861   1.358       .  S
C3865      C3866   1.406       .  A
C3865      C3870   1.397       .  A
C3865      F3872   1.358       .  S
C3866      C3867   1.408       .  A
C3867      C3868   1.405       .  A
C3867      F3874   1.358       .  S
C3868      C3869   1.409       .  A
C3868      F3873   1.358       .  S
C3869      C3870   1.410       .  A
C3870      F3871   1.358       .  S
C3875      C3876   1.407       .  A
C3875      C3880   1.403       .  A
C3875      F3882   1.358       .  S
C3876      C3877   1.404       .  A
C3877      C3878   1.396       .  A
C3877      F3884   1.357       .  S
C3878      C3879   1.411       .  A
C3878      F3883   1.358       .  S
C3879      C3880   1.410       .  A
C3879      C4208   1.494       .  S
C3880      F3881   1.357       .  S
C3885      C5254   1.410       .  A
C3885      C5258   1.407       .  A
C3885      F3892   1.358       .  S
C3886      C5253   1.410   1_545  A
C3886      C3887   1.409       .  A
C3887      C3888   1.393       .  A
C3887      F3894   1.357       .  S
C3888      C3889   1.409       .  A
C3888      F3893   1.359       .  S
C3889      C3890   1.412       .  A
C3890      C5253   1.407   1_545  A
C3890      F5259   1.357   1_545  S
F3891      C5258   1.357       .  S
C3895      C3896   1.409       .  A
C3895      C3900   1.403       .  A
C3895      F3902   1.358       .  S
C3896      C3897   1.406       .  A
C3897      C3898   1.397       .  A
C3897      F3904   1.358       .  S
C3898      C3899   1.402       .  A
C3898      F3903   1.354       .  S
C3899      C3900   1.405       .  A
C3900      F3901   1.356       .  S
C3905      C3906   1.406       .  A
C3905      C5278   1.390       .  A
C3905      F3912   1.357       .  S
C3906      C3907   1.407       .  A
C3907      C3908   1.404       .  A
C3907      F3914   1.358       .  S
C3908      C5277   1.408       .  A
C3908      F3913   1.357       .  S
C3909      C5276   1.408   1_545  A
C3909      C3910   1.404   1_545  A
C3910      C5273   1.390       .  A
C3910      F3911   1.359   1_565  S
C3915      C3916   1.403       .  A
C3915      C3920   1.390       .  A
C3915      F3922   1.359       .  S
C3916      C3917   1.405       .  A
C3917      C3918   1.397       .  A
C3917      F3924   1.356       .  S
C3918      C3919   1.409       .  A
C3918      F3923   1.358       .  S
C3919      C3920   1.409       .  A
C3920      F3921   1.357       .  S
C3925      C3930   1.390       .  A
C3925      F3932   1.358   1_455  S
C3926      C3927   1.408       .  A
C3927      C3928   1.397       .  A
C3927      F3934   1.358       .  S
C3928      C3929   1.405       .  A
C3928      F3933   1.358       .  S
C3930      F3931   1.359   1_455  S
C3935      C3936   1.406       .  A
C3935      C3940   1.398       .  A
C3935      F3942   1.358       .  S
C3936      C3937   1.407       .  A
C3937      C3938   1.399       .  A
C3937      F3944   1.358   1_655  S
C3938      C3939   1.405       .  A
C3938      F3943   1.358       .  S
C3939      C3940   1.402       .  A
C3940      F3941   1.353       .  S
C3945      C3946   1.407       .  A
C3945      C3950   1.401       .  A
C3945      F3952   1.358       .  S
C3946      C3947   1.403       .  A
C3947      C3948   1.394       .  A
C3947      F3954   1.358       .  S
C3948      C3949   1.403       .  A
C3948      F3953   1.355       .  S
C3949      C3950   1.404       .  A
C3950      F3951   1.357       .  S
C3955      C3956   1.409       .  A
C3955      C3960   1.396       .  A
C3955      F3962   1.358       .  S
C3956      C3957   1.410       .  A
C3957      C3958   1.404       .  A
C3957      F3964   1.357       .  S
C3958      C3959   1.409       .  A
C3958      F3963   1.358       .  S
C3959      C3960   1.407       .  A
C3960      F3961   1.357       .  S
C3965      C3966   1.408       .  A
C3965      C3970   1.405       .  A
C3965      F3972   1.357       .  S
C3966      C3967   1.402       .  A
C3967      C3968   1.393       .  A
C3967      F3974   1.357       .  S
C3968      C3969   1.410       .  A
C3968      F3973   1.358       .  S
C3969      C3970   1.409       .  A
C3970      F3971   1.357       .  S
C3975      C3976   1.406       .  A
C3975      C3980   1.397       .  A
C3975      F3982   1.358       .  S
C3976      C3977   1.407       .  A
C3977      C3978   1.398       .  A
C3977      F3984   1.353       .  S
C3978      C3979   1.408       .  A
C3978      F3983   1.358       .  S
C3979      C3980   1.411       .  A
C3980      F3981   1.358       .  S
C3985      C3986   1.405       .  A
C3985      C3990   1.401       .  A
C3985      F3992   1.358       .  S
C3986      C3987   1.407       .  A
C3987      C3988   1.391       .  A
C3987      F3994   1.355       .  S
C3988      C3989   1.403       .  A
C3988      F3993   1.359       .  S
C3989      C3990   1.409       .  A
C3990      F3991   1.358       .  S
C3995      C3996   1.411       .  A
C3995      C4000   1.409       .  A
C3996      C3997   1.403       .  A
C3997      C3998   1.386       .  A
C3997      F4004   1.359       .  S
C3998      C3999   1.413       .  A
C3998      F4003   1.354       .  S
C3999      C4000   1.412       .  A
C4000      F4001   1.357       .  S
C4005      C4006   1.401       .  A
C4005      C4010   1.398       .  A
C4006      C4007   1.407       .  A
C4007      C4008   1.401       .  A
C4007      F4014   1.358       .  S
C4008      C4009   1.402       .  A
C4008      F4013   1.358       .  S
C4009      C4010   1.403       .  A
C4015      C4016   1.410       .  A
C4015      C4020   1.404       .  A
C4015      F4022   1.358       .  S
C4016      C4017   1.408       .  A
C4017      C4018   1.391       .  A
C4017      F4024   1.359       .  S
C4018      C4019   1.405       .  A
C4018      F4023   1.354       .  S
C4019      C4020   1.408       .  A
C4020      F4021   1.358       .  S
C4025      C4026   1.408       .  A
C4025      C4030   1.394       .  A
C4025      F4032   1.358       .  S
C4026      C4027   1.411       .  A
C4027      C4028   1.402       .  A
C4027      F4034   1.358       .  S
C4028      C4029   1.407       .  A
C4028      F4033   1.358       .  S
C4029      C4030   1.406       .  A
C4030      F4031   1.355       .  S
C4035      C4036   1.409       .  A
C4035      C4040   1.402       .  A
C4035      F4042   1.357       .  S
C4036      C4037   1.406       .  A
C4037      C4038   1.390       .  A
C4037      F4044   1.359       .  S
C4038      C4039   1.402       .  A
C4038      F4043   1.356       .  S
C4039      C4040   1.405       .  A
C4040      F4041   1.358       .  S
C4045      C4046   1.404       .  A
C4045      C4050   1.396       .  A
C4045      F4052   1.358       .  S
C4046      C4047   1.408       .  A
C4047      C4048   1.397       .  A
C4047      F4054   1.358       .  S
C4048      C4049   1.402       .  A
C4048      F4053   1.358       .  S
C4049      C4050   1.405       .  A
C4050      F4051   1.358       .  S
C4055      C4056   1.411       .  A
C4055      C4060   1.406       .  A
C4055      F4062   1.358       .  S
C4056      C4057   1.406       .  A
C4057      C5426   1.388       .  A
C4057      F4064   1.359       .  S
C4058      C5425   1.388       .  A
C4058      C4059   1.409   1_565  A
C4058      F4063   1.356   1_565  S
C4059      C5428   1.409   1_545  A
C4060      C5427   1.409       .  A
C4060      F5429   1.358       .  S
F4061      C5428   1.358   1_545  S
C4065      C4066   1.407       .  A
C4065      C4070   1.398       .  A
C4065      F4072   1.358       .  S
C4066      C4067   1.404       .  A
C4067      C4068   1.400       .  A
C4068      C4069   1.405       .  A
C4068      F4073   1.358       .  S
C4069      C4070   1.402       .  A
C4070      F4071   1.356       .  S
C4075      C4076   1.410       .  A
C4075      C4080   1.405       .  A
C4075      F4082   1.357       .  S
C4076      C4077   1.408       .  A
C4077      C4078   1.395       .  A
C4078      C4079   1.404       .  A
C4079      C4080   1.408       .  A
C4080      F4081   1.357   1_545  S
C4085      C4086   1.406       .  A
C4085      C4090   1.401       .  A
C4085      F4092   1.358       .  S
C4086      C4087   1.404       .  A
C4087      C4088   1.397       .  A
C4087      F4094   1.355       .  S
C4088      C4089   1.408       .  A
C4088      F4093   1.358       .  S
C4089      C4090   1.409       .  A
C4089      C4109   1.488       .  S
C4090      F4091   1.358       .  S
C4095      C4096   1.407       .  A
C4095      C4100   1.404       .  A
C4095      F4102   1.358       .  S
C4096      C4097   1.403       .  A
C4097      C4098   1.397       .  A
C4097      F4104   1.353       .  S
C4098      C4099   1.406       .  A
C4098      F4103   1.358       .  S
C4099      C4100   1.409       .  A
C4100      F4101   1.358       .  S
C4105      C4106   1.404       .  A
C4105      C4110   1.397       .  A
C4105      C5467   1.487       .  S
C4106      C4107   1.420       .  A
C4106      H4111   1.078       .  S
C4107      C4108   1.417       .  A
C4107      C4116   1.515       .  S
C4108      C4109   1.406       .  A
C4108      H4112   1.079       .  S
C4109      C4110   1.399       .  A
C4110      H4113   1.084       .  S
C4114      C4115   1.408       .  A
C4114      C4119   1.400       .  A
C4114      C5444   1.491       .  S
C4115      C4116   1.422       .  A
C4115      H4120   1.078       .  S
C4116      C4117   1.417       .  A
C4117      C4118   1.400       .  A
C4117      H4121   1.078       .  S
C4118      C4119   1.394       .  A
C4123      C4124   1.396       .  A
C4123      C4128   1.393       .  A
C4123      C5414   1.475       .  S
C4124      C4125   1.412       .  A
C4124      H4129   1.079       .  S
C4125      C4126   1.418       .  A
C4125      C4134   1.504       .  S
C4126      C4127   1.406       .  A
C4126      H4130   1.079       .  S
C4127      C4128   1.401       .  A
C4127      C5424   1.489       .  S
C4128      H4131   1.083       .  S
C4132      C4133   1.399       .  A
C4132      C4137   1.397       .  A
C4132      C5404   1.480       .  S
C4133      C4134   1.412       .  A
C4133      H4138   1.078       .  S
C4134      C4135   1.417       .  A
C4135      C4136   1.403       .  A
C4135      H4139   1.079       .  S
C4136      C4137   1.399       .  A
C4136      C5394   1.490       .  S
C4137      H4140   1.083       .  S
C4141      C4142   1.408       .  A
C4141      C4146   1.399       .  A
C4141      C5384   1.490       .  S
C4142      C4143   1.420       .  A
C4142      H4147   1.077       .  S
C4143      C4144   1.420       .  A
C4144      C4145   1.399       .  A
C4144      H4148   1.078       .  S
C4145      C4146   1.388       .  A
C4145      C5374   1.474       .  S
C4146      H4149   1.084       .  S
C4150      C4151   1.399       .  A
C4150      C4155   1.394       .  A
C4150      C5354   1.481       .  S
C4151      C4152   1.416       .  A
C4151      H4156   1.079       .  S
C4152      C4153   1.423       .  A
C4153      C4154   1.411       .  A
C4153      H4157   1.075       .  S
C4154      C4155   1.400       .  A
C4154      C5367   1.500       .  S
C4155      H4158   1.084       .  S
C4159      C4160   1.406   1_556  A
C4159      C4164   1.397       .  A
C4159      C5337   1.491       .  S
C4160      C4161   1.420       .  A
C4160      H4165   1.077   1_554  S
C4161      C4162   1.415       .  A
C4161      C4170   1.511       .  S
C4162      C4163   1.404       .  A
C4162      H4166   1.079       .  S
C4163      C4164   1.398   1_554  A
C4163      C5347   1.490       .  S
C4164      H4167   1.083       .  S
C4168      C4169   1.408       .  A
C4168      C4173   1.399       .  A
C4168      C5324   1.492       .  S
C4169      C4170   1.422       .  A
C4169      H4174   1.080       .  S
C4170      C4171   1.414       .  A
C4171      C4172   1.400       .  A
C4171      H4175   1.079       .  S
C4172      C4173   1.394       .  A
C4172      C5314   1.475       .  S
C4173      H4176   1.084       .  S
C4177      C4178   1.399       .  A
C4177      C5294   1.477       .  S
C4178      C4179   1.413       .  A
C4178      H4183   1.077       .  S
C4179      C4180   1.421       .  A
C4179      C4190   1.513       .  S
C4180      H4184   1.075       .  S
C4181      C4182   1.393   1_455  A
C4181      C5304   1.481   1_455  S
C4182      H4185   1.084       .  S
C4186      C4187   1.395       .  A
C4186      C4191   1.400       .  A
C4186      C5287   1.482       .  S
C4187      C4188   1.394       .  A
C4187      H4192   1.084       .  S
C4188      C4189   1.402       .  A
C4188      C5274   1.481       .  S
C4189      C4190   1.421       .  A
C4189      H4193   1.077       .  S
C4190      C4191   1.414       .  A
C4191      H4194   1.073       .  S
C4195      C4196   1.401       .  A
C4195      C4200   1.409       .  A
C4195      C5257   1.497       .  S
C4196      C4197   1.393       .  A
C4196      H4201   1.083       .  S
C4197      C4198   1.404       .  A
C4197      C5264   1.484       .  S
C4198      C4199   1.418       .  A
C4198      H4202   1.078       .  S
C4199      C4200   1.422       .  A
C4199      C4206   1.519       .  S
C4200      H4203   1.078       .  S
C4204      C4205   1.407       .  A
C4204      C4209   1.398       .  A
C4204      C5237   1.493       .  S
C4205      C4206   1.421       .  A
C4205      H4210   1.078       .  S
C4206      C4207   1.419       .  A
C4207      C4208   1.407       .  A
C4207      H4211   1.077       .  S
C4208      C4209   1.398       .  A
C4209      H4212   1.084       .  S
C4213      C4214   1.408       .  A
C4213      C4218   1.397       .  A
C4213      C5224   1.492       .  S
C4214      C4215   1.424       .  A
C4214      H4219   1.079       .  S
C4215      C4216   1.419       .  A
C4215      C4224   1.520       .  S
C4216      C4217   1.408       .  A
C4216      H4220   1.079       .  S
C4217      C4218   1.397       .  A
C4218      H4221   1.084       .  S
C4222      C4223   1.414       .  A
C4222      C4227   1.404       .  A
C4222      C5204   1.504       .  S
C4223      C4224   1.423       .  A
C4223      H4228   1.079       .  S
C4224      C4225   1.416       .  A
C4225      C4226   1.403       .  A
C4225      H4229   1.079       .  S
C4226      C4227   1.399       .  A
C4226      C5194   1.491       .  S
C4227      H4230   1.082       .  S
C4231      C4232   1.400       .  A
C4231      C4236   1.395       .  A
C4231      C5184   1.477       .  S
C4232      C4233   1.417       .  A
C4232      H4237   1.077       .  S
C4233      C4234   1.420       .  A
C4233      C4242   1.516       .  S
C4234      C4235   1.407       .  A
C4234      H4238   1.079       .  S
C4235      C4236   1.400       .  A
C4235      C5177   1.490       .  S
C4236      H4239   1.084       .  S
C4240      C4241   1.404       .  A
C4240      C4245   1.395       .  A
C4240      C5157   1.485       .  S
C4241      C4242   1.419       .  A
C4241      H4246   1.078       .  S
C4242      C4243   1.422       .  A
C4243      C4244   1.403       .  A
C4243      H4247   1.077       .  S
C4244      C4245   1.393       .  A
C4244      C5167   1.482       .  S
C4245      H4248   1.084       .  S
C4249      C4250   1.392       .  A
C4249      C4254   1.400       .  A
C4249      C5147   1.474       .  S
C4250      C4251   1.396       .  A
C4250      H4255   1.084       .  S
C4251      C4252   1.406       .  A
C4251      C5134   1.484       .  S
C4252      C4253   1.419       .  A
C4252      H4256   1.079       .  S
C4253      C4254   1.415       .  A
C4253      C4262   1.511       .  S
C4254      H4257   1.079       .  S
C4258      C4259   1.396       .  A
C4258      C4263   1.401       .  A
C4258      C5114   1.477       .  S
C4259      C4260   1.397       .  A
C4259      H4264   1.085       .  S
C4260      C4261   1.403       .  A
C4260      C5124   1.478       .  S
C4261      C4262   1.418       .  A
C4261      H4265   1.079       .  S
C4262      C4263   1.416       .  A
C4263      H4266   1.079       .  S
C4267      C4268   1.407   1_556  A
C4267      C4272   1.400   1_556  A
C4267      C5094   1.491       .  S
C4268      H4273   1.075       .  S
C4269      C4270   1.416       .  A
C4269      C4278   1.515       .  S
C4270      H4274   1.078       .  S
C4271      C4272   1.393       .  A
C4271      C5107   1.476       .  S
C4272      H4275   1.084   1_554  S
C4276      C4277   1.401       .  A
C4276      C4281   1.395       .  A
C4276      C5084   1.482       .  S
C4277      C4278   1.418       .  A
C4277      H4282   1.077       .  S
C4278      C4279   1.419       .  A
C4279      C4280   1.406       .  A
C4279      H4283   1.077       .  S
C4280      C4281   1.398       .  A
C4280      C5077   1.488       .  S
C4281      H4284   1.083       .  S
C4285      C4286   1.404       .  A
C4285      C4290   1.396       .  A
C4285      C5054   1.484       .  S
C4286      C4287   1.417       .  A
C4286      H4291   1.080       .  S
C4287      C4288   1.418       .  A
C4287      C4296   1.512       .  S
C4288      C4289   1.408       .  A
C4288      H4292   1.079       .  S
C4289      C4290   1.397       .  A
C4289      C5067   1.491       .  S
C4290      H4293   1.083       .  S
C4294      C4295   1.403       .  A
C4294      C4299   1.393       .  A
C4294      C5047   1.479       .  S
C4295      C4296   1.418       .  A
C4295      H4300   1.079       .  S
C4296      C4297   1.419       .  A
C4297      C4298   1.407       .  A
C4297      H4301   1.080       .  S
C4298      C4299   1.398       .  A
C4299      H4302   1.084       .  S
C4303      C4304   1.398       .  A
C4303      C4308   1.392       .  A
C4303      C5017   1.470       .  S
C4304      C4305   1.416       .  A
C4304      H4309   1.079       .  S
C4305      C4306   1.419       .  A
C4305      C4314   1.513       .  S
C4306      C4307   1.409       .  A
C4306      H4310   1.078       .  S
C4307      C4308   1.399       .  A
C4307      C5024   1.491       .  S
C4308      H4311   1.084       .  S
C4312      C4317   1.396   1_545  A
C4312      C4997   1.484       .  S
C4313      C4314   1.419       .  A
C4313      H4318   1.077       .  S
C4315      C4316   1.401   1_545  A
C4315      H4319   1.079       .  S
C4316      C4317   1.391       .  A
C4316      C5007   1.475       .  S
C4317      H4320   1.085       .  S
C4321      C4322   1.411       .  A
C4321      C4326   1.400       .  A
C4321      C4984   1.501       .  S
C4322      C4323   1.426       .  A
C4322      H4327   1.077       .  S
C4323      C4324   1.417       .  A
C4323      C4332   1.525       .  S
C4324      C4325   1.404       .  A
C4324      H4328   1.073       .  S
C4325      C4326   1.398       .  A
C4325      C4974   1.494       .  S
C4326      H4329   1.083       .  S
C4330      C4331   1.408       .  A
C4330      C4335   1.399       .  A
C4330      C4964   1.497       .  S
C4331      C4332   1.426       .  A
C4331      H4336   1.075       .  S
C4332      C4333   1.418       .  A
C4333      C4334   1.405       .  A
C4333      H4337   1.077       .  S
C4334      C4335   1.397       .  A
C4334      C4954   1.489       .  S
C4335      H4338   1.083       .  S
C4339      C4340   1.398       .  A
C4339      C4344   1.393       .  A
C4339      C4944   1.473       .  S
C4340      C4341   1.414       .  A
C4340      H4345   1.079       .  S
C4341      C4342   1.420       .  A
C4341      C4350   1.508       .  S
C4342      C4343   1.407       .  A
C4342      H4346   1.078       .  S
C4343      C4344   1.395       .  A
C4343      C4934   1.487       .  S
C4344      H4347   1.084       .  S
C4348      C4353   1.395   1_545  A
C4348      C4924   1.476       .  S
C4349      C4350   1.412       .  A
C4349      H4354   1.079       .  S
C4351      C4352   1.405   1_545  A
C4351      H4355   1.079       .  S
C4352      C4353   1.398       .  A
C4352      C4914   1.487       .  S
C4353      H4356   1.083       .  S
C4357      C4362   1.399       .  A
C4357      C4894   1.488       .  S
C4358      C4359   1.419       .  A
C4358      H4363   1.078       .  S
C4359      C4360   1.417       .  A
C4359      C4368   1.514       .  S
C4360      C4361   1.402       .  A
C4360      H4364   1.079       .  S
C4361      C4904   1.474       .  S
C4362      H4365   1.084       .  S
C4366      C4367   1.410       .  A
C4366      C4371   1.401       .  A
C4366      C4874   1.493       .  S
C4367      C4368   1.420       .  A
C4367      H4372   1.079       .  S
C4368      C4369   1.416       .  A
C4369      C4370   1.399       .  A
C4369      H4373   1.078       .  S
C4370      C4371   1.393       .  A
C4370      C4887   1.474       .  S
C4371      H4374   1.084       .  S
C4375      C4376   1.402       .  A
C4375      C4380   1.395       .  A
C4375      C4854   1.480       .  S
C4376      C4377   1.418       .  A
C4376      H4381   1.078       .  S
C4377      C4378   1.417       .  A
C4377      C4386   1.515       .  S
C4378      C4379   1.402       .  A
C4378      H4382   1.076       .  S
C4379      C4380   1.398       .  A
C4379      C4867   1.485       .  S
C4380      H4383   1.084       .  S
C4384      C4385   1.403       .  A
C4384      C4389   1.398       .  A
C4384      C4844   1.493       .  S
C4385      C4386   1.421       .  A
C4385      H4390   1.073       .  S
C4386      C4387   1.420       .  A
C4387      C4388   1.403       .  A
C4387      H4391   1.078       .  S
C4388      C4389   1.397       .  A
C4388      C4834   1.487       .  S
C4389      H4392   1.084       .  S
C4393      C4394   1.407   1_556  A
C4393      C4398   1.403   1_556  A
C4393      C4824   1.493       .  S
C4394      C4395   1.416       .  A
C4394      H4399   1.079       .  S
C4395      C4396   1.417       .  A
C4395      C4404   1.510       .  S
C4396      C4397   1.400       .  A
C4396      H4400   1.078       .  S
C4397      C4398   1.394       .  A
C4397      C4817   1.483       .  S
C4398      H4401   1.082       .  S
C4402      C4403   1.401       .  A
C4402      C4407   1.393       .  A
C4402      C4797   1.474       .  S
C4403      H4408   1.078       .  S
C4404      C4405   1.418       .  A
C4405      H4409   1.080       .  S
C4406      C4407   1.395       .  A
C4406      C4804   1.475       .  S
C4407      H4410   1.085       .  S
C4411      C4412   1.406       .  A
C4411      C4416   1.396       .  A
C4411      C4784   1.487       .  S
C4412      C4413   1.420       .  A
C4412      H4417   1.078       .  S
C4413      C4414   1.418       .  A
C4413      C4424   1.515       .  S
C4414      C4415   1.402       .  A
C4414      H4418   1.077       .  S
C4415      C4416   1.391       .  A
C4415      C4774   1.478       .  S
C4416      H4419   1.084       .  S
C4420      C4421   1.393   1_455  A
C4420      C4757   1.481       .  S
C4421      C4422   1.398       .  A
C4421      H4426   1.084       .  S
C4422      C4423   1.405   1_655  A
C4422      C4767   1.490       .  S
C4423      H4427   1.075       .  S
C4424      C4425   1.418       .  A
C4425      H4428   1.079       .  S
O4429     Zr4465   2.453       .  S
O4429      C4440   1.295       .  A
O4430     Zr4464   2.449       .  S
O4430      C4441   1.294       .  A
O4431     Zr4437   2.437       .  S
O4431      C4442   1.293       .  A
O4432     Zr4437   2.441       .  S
O4432      C4443   1.292       .  A
O4433     Zr4467   2.444       .  S
O4433      C4443   1.295       .  A
O4434     Zr4466   2.433       .  S
O4434      C4442   1.291       .  A
O4435     Zr4437   2.443       .  S
O4435      C4441   1.293       .  A
O4436     Zr4437   2.440       .  S
O4436      C4440   1.292       .  A
Zr4437     O4438   2.346       .  S
Zr4437     O4439   2.340       .  S
Zr4437     O4447   2.343       .  S
Zr4437     O4445   2.342       .  S
O4438     Zr4464   2.342       .  S
O4438     Zr4467   2.347       .  S
O4439     Zr4465   2.339       .  S
O4439     Zr4466   2.342       .  S
C4440      C5464   1.480       .  S
C4441      C5217   1.477       .  S
C4442      C5154   1.475       .  S
C4443      C4764   1.485       .  S
H4444      O4445   0.965       .  S
O4445     Zr4464   2.342       .  S
O4445     Zr4466   2.342       .  S
H4446      O4447   0.966       .  S
O4447     Zr4465   2.333       .  S
O4447     Zr4467   2.339       .  S
O4448     Zr4464   2.441       .  S
O4448      C4471   1.294       .  A
O4449     Zr4465   2.449       .  S
O4449      C4472   1.294       .  A
O4450     Zr4466   2.447       .  S
O4450      C4473   1.294       .  A
O4451     Zr4467   2.433       .  S
O4451      C4474   1.292       .  A
O4452     Zr4467   2.452       .  S
O4452      C4475   1.294       .  A
O4453     Zr4466   2.445       .  S
O4453      C4476   1.293       .  A
O4454     Zr4468   2.437       .  S
O4454      C4477   1.291       .  A
O4455     Zr4468   2.428       .  S
O4455      C4478   1.291       .  A
O4456     Zr4466   2.432       .  S
O4456      C4477   1.292       .  A
O4457     Zr4467   2.446       .  S
O4457      C4478   1.294       .  A
O4458     Zr4464   2.430       .  S
O4458      C4473   1.291       .  A
O4459     Zr4465   2.415       .  S
O4459      C4476   1.287       .  A
O4460     Zr4465   2.418       .  S
O4460      C4475   1.289       .  A
O4461     Zr4464   2.448       .  S
O4461      C4474   1.294       .  A
O4462     Zr4468   2.442       .  S
O4462      C4471   1.292       .  A
O4463     Zr4468   2.441       .  S
O4463      C4472   1.293       .  A
Zr4464     O4470   2.342       .  S
Zr4464     O4482   2.340       .  S
Zr4465     O4469   2.337       .  S
Zr4465     O4480   2.340       .  S
Zr4466     O4470   2.337       .  S
Zr4466     O4480   2.335       .  S
Zr4467     O4469   2.341       .  S
Zr4467     O4482   2.344       .  S
Zr4468     O4469   2.345       .  S
Zr4468     O4470   2.335       .  S
Zr4468     O4482   2.343       .  S
Zr4468     O4480   2.335       .  S
C4471      C5334   1.480       .  S
C4472      C5197   1.480       .  S
C4473      C5397   1.481       .  S
C4474      C4827   1.489       .  S
C4475      C5427   1.485       .  S
C4476      C4947   1.460       .  S
C4477      C4787   1.483       .  S
C4478      C5097   1.478       .  S
H4479      O4480   0.965       .  S
H4481      O4482   0.966       .  S
O4483     Zr4519   2.426   1_556  S
O4483      C4494   1.291       .  A
O4484     Zr4518   2.432       .  S
O4484      C4495   1.290       .  A
O4485     Zr4491   2.437       .  S
O4485      C4496   1.291       .  A
O4486      C4497   1.293   1_655  A
O4488     Zr4520   2.451       .  S
O4488      C4496   1.295       .  A
O4489      C4495   1.294       .  A
O4490     Zr4491   2.438   1_556  S
O4490      C4494   1.291       .  A
Zr4491     O4493   2.343       .  S
Zr4491     O4501   2.349   1_554  S
Zr4491     O4499   2.340       .  S
O4492     Zr4518   2.342       .  S
O4493     Zr4519   2.344       .  S
O4493     Zr4520   2.339       .  S
C4494      C5407   1.469       .  S
C4495      C4814   1.472       .  S
C4496      C5074   1.483       .  S
C4497      C4754   1.466       .  S
H4498      O4499   0.966       .  S
O4499     Zr4520   2.343       .  S
H4500      O4501   0.966       .  S
O4501     Zr4519   2.337   1_556  S
O4502      C4525   1.291       .  A
O4503     Zr4519   2.431       .  S
O4503      C4526   1.290       .  A
O4504     Zr4520   2.433       .  S
O4504      C4527   1.292       .  A
O4505      C4528   1.290       .  A
O4506     Zr4521   2.445   1_556  S
O4506      C4529   1.294       .  A
O4507     Zr4520   2.439       .  S
O4507      C4530   1.292       .  A
O4508      C4531   1.290       .  A
O4509     Zr4522   2.435       .  S
O4509      C4532   1.291       .  A
O4510     Zr4520   2.449       .  S
O4510      C4531   1.294       .  A
O4511     Zr4521   2.434       .  S
O4511      C4532   1.291       .  A
O4512     Zr4518   2.439       .  S
O4513     Zr4519   2.439       .  S
O4513      C4530   1.293       .  A
O4514     Zr4519   2.458   1_556  S
O4515      C4528   1.293       .  A
O4516     Zr4522   2.457       .  S
O4517     Zr4522   2.446       .  S
Zr4519     O4534   2.343       .  S
Zr4520     O4524   2.342       .  S
Zr4520     O4534   2.341       .  S
Zr4521     O4523   2.339       .  S
Zr4521     O4536   2.341       .  S
Zr4522     O4523   2.342       .  S
Zr4522     O4536   2.335       .  S
C4525      C5254   1.490       .  S
C4526      C4807   1.469       .  S
C4527      C4994   1.474       .  S
C4528      C5317   1.468       .  S
C4529      C5207   1.495       .  S
C4530      C5344   1.482       .  S
C4531      C4847   1.482       .  S
C4532      C5104   1.463       .  S
H4533      O4534   0.965       .  S
O4537     Zr4573   2.438       .  S
O4537      C4548   1.293       .  A
O4538     Zr4572   2.436       .  S
O4538      C4549   1.292       .  A
O4539     Zr4545   2.437       .  S
O4539      C4550   1.292       .  A
O4540     Zr4545   2.444       .  S
O4540      C4551   1.293       .  A
O4541     Zr4575   2.431       .  S
O4541      C4551   1.291       .  A
O4542     Zr4574   2.451       .  S
O4542      C4550   1.294       .  A
O4543     Zr4545   2.443       .  S
O4543      C4549   1.293       .  A
O4544     Zr4545   2.440       .  S
O4544      C4548   1.292       .  A
Zr4545     O4546   2.336       .  S
Zr4545     O4547   2.341       .  S
Zr4545     O4555   2.342       .  S
Zr4545     O4553   2.348       .  S
O4546     Zr4572   2.335       .  S
O4546     Zr4575   2.333       .  S
O4547     Zr4573   2.342       .  S
O4547     Zr4574   2.345       .  S
C4548      C5387   1.482       .  S
C4549      C4957   1.475       .  S
C4550      C4897   1.480       .  S
C4551      C5037   1.482       .  S
H4552      O4553   0.966       .  S
O4553     Zr4572   2.344       .  S
O4553     Zr4574   2.344       .  S
H4554      O4555   0.966       .  S
O4555     Zr4573   2.346       .  S
O4555     Zr4575   2.342       .  S
O4556     Zr4572   2.445       .  S
O4556      C4579   1.294       .  A
O4557     Zr4573   2.444       .  S
O4557      C4580   1.293       .  A
O4558     Zr4574   2.440       .  S
O4558      C4581   1.292       .  A
O4559     Zr4575   2.435       .  S
O4559      C4582   1.291       .  A
O4560     Zr4575   2.429       .  S
O4560      C4583   1.290       .  A
O4561     Zr4574   2.431       .  S
O4561      C4584   1.291       .  A
O4562     Zr4576   2.429       .  S
O4562      C4585   1.290       .  A
O4563     Zr4576   2.433       .  S
O4563      C4586   1.291       .  A
O4564     Zr4574   2.454       .  S
O4564      C4585   1.295       .  A
O4565     Zr4575   2.439       .  S
O4565      C4586   1.292       .  A
O4566     Zr4572   2.427       .  S
O4566      C4581   1.291       .  A
O4567     Zr4573   2.447       .  S
O4567      C4584   1.294       .  A
O4568     Zr4573   2.454       .  S
O4568      C4583   1.295       .  A
O4569     Zr4572   2.431       .  S
O4569      C4582   1.289       .  A
O4570     Zr4576   2.444       .  S
O4570      C4579   1.293       .  A
O4571     Zr4576   2.439       .  S
O4571      C4580   1.293       .  A
Zr4572     O4578   2.335       .  S
Zr4572     O4590   2.340       .  S
Zr4573     O4577   2.336       .  S
Zr4573     O4588   2.349       .  S
Zr4574     O4578   2.338       .  S
Zr4574     O4588   2.349       .  S
Zr4575     O4577   2.338       .  S
Zr4575     O4590   2.336       .  S
Zr4576     O4577   2.337       .  S
Zr4576     O4578   2.339       .  S
Zr4576     O4590   2.340       .  S
Zr4576     O4588   2.341       .  S
C4579      C5234   1.483       .  S
C4580      C4977   1.484       .  S
C4581      C5277   1.473       .  S
C4582      C5014   1.461       .  S
C4583      C5307   1.472       .  S
C4584      C5144   1.470       .  S
C4585      C5064   1.482       .  S
C4586      C4857   1.470       .  S
H4587      O4588   0.966       .  S
H4589      O4590   0.966       .  S
O4591     Zr4627   2.438       .  S
O4591      C4602   1.292       .  A
O4592     Zr4626   2.447       .  S
O4592      C4603   1.294       .  A
O4593     Zr4599   2.435       .  S
O4593      C4604   1.292       .  A
O4594     Zr4599   2.433       .  S
O4594      C4605   1.291       .  A
O4595     Zr4629   2.430       .  S
O4595      C4605   1.290       .  A
O4596     Zr4628   2.432       .  S
O4596      C4604   1.292       .  A
O4597     Zr4599   2.446       .  S
O4597      C4603   1.293       .  A
O4598     Zr4599   2.445       .  S
O4598      C4602   1.294       .  A
Zr4599     O4600   2.332       .  S
Zr4599     O4601   2.338       .  S
Zr4599     O4609   2.351       .  S
Zr4599     O4607   2.340       .  S
O4600     Zr4626   2.331       .  S
O4600     Zr4629   2.339       .  S
O4601     Zr4627   2.339       .  S
O4601     Zr4628   2.338       .  S
C4602      C5454   1.479       .  S
C4603      C5227   1.482       .  S
C4604      C4917   1.480       .  S
C4605      C5417   1.464       .  S
H4606      O4607   0.966       .  S
O4607     Zr4626   2.335       .  S
O4607     Zr4628   2.341       .  S
H4608      O4609   0.966       .  S
O4609     Zr4627   2.346       .  S
O4609     Zr4629   2.350       .  S
O4610     Zr4626   2.437       .  S
O4610      C4633   1.291       .  A
O4611     Zr4627   2.436       .  S
O4611      C4634   1.292       .  A
O4612     Zr4628   2.439       .  S
O4612      C4635   1.291       .  A
O4613     Zr4629   2.448       .  S
O4613      C4636   1.294       .  A
O4614     Zr4629   2.457       .  S
O4614      C4637   1.295       .  A
O4615     Zr4628   2.438       .  S
O4615      C4638   1.293       .  A
O4616     Zr4630   2.436       .  S
O4616      C4639   1.293       .  A
O4617     Zr4630   2.432       .  S
O4617      C4640   1.291       .  A
O4618     Zr4628   2.429       .  S
O4618      C4639   1.290       .  A
O4619     Zr4629   2.446       .  S
O4619      C4640   1.294       .  A
O4620     Zr4626   2.432       .  S
O4620      C4635   1.292       .  A
O4621     Zr4627   2.442       .  S
O4621      C4638   1.293       .  A
O4622     Zr4627   2.430       .  S
O4622      C4637   1.291       .  A
O4623     Zr4626   2.425       .  S
O4623      C4636   1.289       .  A
O4624     Zr4630   2.440       .  S
O4624      C4633   1.292       .  A
O4625     Zr4630   2.442       .  S
O4625      C4634   1.292       .  A
Zr4626     O4632   2.335       .  S
Zr4626     O4644   2.345       .  S
Zr4627     O4631   2.340       .  S
Zr4627     O4642   2.337       .  S
Zr4628     O4632   2.338       .  S
Zr4628     O4642   2.339       .  S
Zr4629     O4631   2.336       .  S
Zr4629     O4644   2.350       .  S
Zr4630     O4631   2.338       .  S
Zr4630     O4632   2.337       .  S
Zr4630     O4644   2.344       .  S
Zr4630     O4642   2.344       .  S
C4633      C5437   1.468       .  S
C4634      C5117   1.470       .  S
C4635      C5164   1.472       .  S
C4636      C4777   1.468       .  S
C4637      C5174   1.485       .  S
C4638      C4877   1.483       .  S
C4639      C5357   1.473       .  S
C4640      C4937   1.477       .  S
H4641      O4642   0.966       .  S
H4643      O4644   0.966       .  S
O4645     Zr4681   2.439       .  S
O4645      C4656   1.293       .  A
O4646     Zr4680   2.429       .  S
O4646      C4657   1.289       .  A
O4647     Zr4653   2.438       .  S
O4647      C4658   1.293       .  A
O4648     Zr4653   2.443       .  S
O4648      C4659   1.293       .  A
O4649     Zr4683   2.426       .  S
O4649      C4659   1.290       .  A
O4650     Zr4682   2.438       .  S
O4650      C4658   1.292       .  A
O4651     Zr4653   2.445       .  S
O4651      C4657   1.293       .  A
O4652     Zr4653   2.447       .  S
O4652      C4656   1.294       .  A
Zr4653     O4654   2.339       .  S
Zr4653     O4655   2.341       .  S
Zr4653     O4663   2.347       .  S
Zr4653     O4661   2.345       .  S
O4654     Zr4680   2.338       .  S
O4654     Zr4683   2.339       .  S
O4655     Zr4681   2.340       .  S
O4655     Zr4682   2.339       .  S
C4656      C5327   1.485       .  S
C4657      C5004   1.465       .  S
C4658      C5087   1.472       .  S
C4659      C4864   1.476       .  S
H4660      O4661   0.966       .  S
O4661     Zr4680   2.335       .  S
O4661     Zr4682   2.339       .  S
H4662      O4663   0.966       .  S
O4663     Zr4681   2.344       .  S
O4663     Zr4683   2.343       .  S
O4664     Zr4680   2.420       .  S
O4664      C4687   1.290       .  A
O4665     Zr4681   2.439       .  S
O4665      C4688   1.292       .  A
O4666     Zr4682   2.444       .  S
O4666      C4689   1.293       .  A
O4667     Zr4683   2.448       .  S
O4667      C4690   1.295       .  A
O4668     Zr4683   2.438       .  S
O4668      C4691   1.292       .  A
O4669     Zr4682   2.436       .  S
O4669      C4692   1.291       .  A
O4670     Zr4684   2.446       .  S
O4670      C4693   1.293       .  A
O4671     Zr4684   2.453       .  S
O4671      C4694   1.295       .  A
O4672     Zr4682   2.431       .  S
O4672      C4693   1.292       .  A
O4673     Zr4683   2.429       .  S
O4673      C4694   1.289       .  A
O4674     Zr4680   2.440       .  S
O4674      C4689   1.293       .  A
O4675     Zr4681   2.443       .  S
O4675      C4692   1.292       .  A
O4676     Zr4681   2.450       .  S
O4676      C4691   1.294       .  A
O4677     Zr4680   2.449       .  S
O4677      C4690   1.294       .  A
O4678     Zr4684   2.431       .  S
O4678      C4687   1.291       .  A
O4679     Zr4684   2.442       .  S
O4679      C4688   1.293       .  A
Zr4680     O4686   2.340       .  S
Zr4680     O4698   2.339       .  S
Zr4681     O4685   2.343       .  S
Zr4681     O4696   2.343       .  S
Zr4682     O4686   2.335       .  S
Zr4682     O4696   2.340       .  S
Zr4683     O4685   2.342       .  S
Zr4683     O4698   2.336       .  S
Zr4684     O4685   2.342       .  S
Zr4684     O4686   2.343       .  S
Zr4684     O4698   2.343       .  S
Zr4684     O4696   2.345       .  S
C4687      C5284   1.469       .  S
C4688      C5027   1.480       .  S
C4689      C5244   1.480       .  S
C4690      C4987   1.489       .  S
C4691      C5267   1.475       .  S
C4692      C4794   1.468       .  S
C4693      C4837   1.481       .  S
C4694      C5044   1.471       .  S
H4695      O4696   0.966       .  S
H4697      O4698   0.966       .  S
O4699     Zr4735   2.446       .  S
O4700     Zr4734   2.447       .  S
O4700      C4711   1.293       .  A
O4701     Zr4707   2.440       .  S
O4701      C4712   1.292       .  A
O4702     Zr4707   2.438       .  S
O4702      C4713   1.292       .  A
O4703      C4713   1.292       .  A
O4704     Zr4736   2.443       .  S
O4705     Zr4707   2.430       .  S
O4705      C4711   1.291       .  A
O4706     Zr4707   2.442       .  S
Zr4707     O4708   2.344       .  S
Zr4707     O4717   2.341       .  S
Zr4707     O4715   2.347       .  S
O4708     Zr4734   2.342       .  S
O4709     Zr4736   2.346       .  S
C4710      C5447   1.483       .  S
C4711      C5127   1.472       .  S
C4712      C4907   1.468       .  S
C4713      C5187   1.468       .  S
H4714      O4715   0.966       .  S
O4715     Zr4734   2.336       .  S
H4716      O4717   0.966       .  S
O4718     Zr4734   2.422       .  S
O4719     Zr4735   2.428       .  S
O4719      C4742   1.290       .  A
O4720      C4743   1.292       .  A
O4721      C4744   1.291       .  A
O4722     Zr4737   2.432       .  S
O4722      C4745   1.291       .  A
O4723      C4746   1.293       .  A
O4724      C4747   1.293       .  A
O4725     Zr4738   2.446       .  S
O4725      C4748   1.292       .  A
O4726      C4747   1.292       .  A
O4727     Zr4737   2.442       .  S
O4727      C4748   1.292       .  A
O4728     Zr4734   2.460       .  S
O4728      C4743   1.296       .  A
O4729     Zr4735   2.429       .  S
O4729      C4746   1.292       .  A
O4730     Zr4735   2.437       .  S
O4731     Zr4734   2.445       .  S
O4731      C4744   1.293       .  A
O4732     Zr4738   2.433       .  S
O4732      C4741   1.291       .  A
O4733      C4742   1.294       .  A
Zr4734     O4740   2.344       .  S
Zr4735     O4750   2.339       .  S
Zr4737     O4739   2.336       .  S
Zr4737     O4752   2.336       .  S
Zr4738     O4739   2.332       .  S
Zr4738     O4752   2.342       .  S
C4741      C5297   1.467       .  S
C4742      C5137   1.476       .  S
C4743      C4967   1.488       .  S
C4744      C5377   1.467       .  S
C4745      C4927   1.470       .  S
C4746      C5364   1.483       .  S
C4747      C5057   1.476       .  S
C4748      C4884   1.471       .  S
H4749      O4750   0.966       .  S
H4751      O4752   0.965       .  S
C4753      C4754   1.402   1_655  A
C4753      C4758   1.396       .  A
C4755      C4756   1.400       .  A
C4755      F4762   1.357       .  S
C4756      F4761   1.358       .  S
C4757      C4758   1.407   1_455  A
C4758      F4759   1.358       .  S
C4763      C4764   1.410       .  A
C4763      C4768   1.408       .  A
C4763      F4770   1.357       .  S
C4764      C4765   1.402       .  A
C4765      C4766   1.388       .  A
C4765      F4772   1.349       .  S
C4766      C4767   1.407       .  A
C4766      F4771   1.359       .  S
C4767      C4768   1.410       .  A
C4768      F4769   1.357       .  S
C4773      C4774   1.407       .  A
C4773      C4778   1.397       .  A
C4773      F4780   1.358       .  S
C4774      C4775   1.407       .  A
C4775      C4776   1.398       .  A
C4775      F4782   1.358       .  S
C4776      C4777   1.404       .  A
C4776      F4781   1.358       .  S
C4777      C4778   1.403       .  A
C4778      F4779   1.358       .  S
C4783      C4784   1.408       .  A
C4783      C4788   1.391       .  A
C4783      F4790   1.359       .  S
C4784      C4785   1.407       .  A
C4785      C4786   1.402       .  A
C4785      F4792   1.358       .  S
C4786      C4787   1.410       .  A
C4786      F4791   1.357       .  S
C4787      C4788   1.407       .  A
C4788      F4789   1.357       .  S
C4793      C4794   1.405       .  A
C4793      C4798   1.401       .  A
C4793      F4800   1.356       .  S
C4794      C4795   1.401       .  A
C4795      C4796   1.396       .  A
C4795      F4802   1.356       .  S
C4796      C4797   1.405       .  A
C4796      F4801   1.358       .  S
C4797      C4798   1.404       .  A
C4798      F4799   1.358       .  S
C4803      C4808   1.394       .  A
C4803      F4810   1.358       .  S
C4804      C4805   1.406       .  A
C4805      C4806   1.402       .  A
C4805      F4812   1.358       .  S
C4806      F4811   1.358       .  S
C4807      C4808   1.402       .  A
C4808      F4809   1.355       .  S
C4813      C4814   1.403       .  A
C4813      C4818   1.399       .  A
C4813      F4820   1.358   1_655  S
C4814      C4815   1.404       .  A
C4815      C4816   1.400       .  A
C4815      F4822   1.356       .  S
C4816      C4817   1.407       .  A
C4816      F4821   1.358       .  S
C4817      C4818   1.408       .  A
C4818      F4819   1.358   1_655  S
C4823      C4824   1.412       .  A
C4823      C4828   1.405       .  A
C4823      F4830   1.357       .  S
C4824      C4825   1.407       .  A
C4825      C4826   1.389       .  A
C4825      F4832   1.358       .  S
C4826      C4827   1.406       .  A
C4826      F4831   1.351       .  S
C4827      C4828   1.410       .  A
C4828      F4829   1.356       .  S
C4833      C4838   1.388       .  A
C4835      C4836   1.407       .  A
C4836      C4837   1.410       .  A
C4836      F4841   1.358       .  S
C4837      C4838   1.405       .  A
C4838      F4839   1.356       .  S
C4843      C4844   1.412       .  A
C4843      C4848   1.406       .  A
C4843      F4850   1.357       .  S
C4844      C4845   1.409       .  A
C4845      C4846   1.388       .  A
C4845      F4852   1.357       .  S
C4846      C4847   1.405       .  A
C4847      C4848   1.409       .  A
C4848      F4849   1.358       .  S
C4853      C4854   1.407       .  A
C4853      C4858   1.399       .  A
C4853      F4860   1.358       .  S
C4854      C4855   1.407       .  A
C4855      C4856   1.397       .  A
C4855      F4862   1.358       .  S
C4856      C4857   1.404       .  A
C4856      F4861   1.358       .  S
C4857      C4858   1.404       .  A
C4858      F4859   1.358       .  S
C4863      C4864   1.406       .  A
C4863      C4868   1.394       .  A
C4863      F4870   1.355       .  S
C4864      C4865   1.405       .  A
C4865      C4866   1.400       .  A
C4865      F4872   1.357       .  S
C4866      C4867   1.410       .  A
C4866      F4871   1.358       .  S
C4867      C4868   1.406       .  A
C4868      F4869   1.358       .  S
C4873      C4874   1.409       .  A
C4873      C4878   1.402       .  A
C4873      F4880   1.358       .  S
C4874      C4875   1.410       .  A
C4875      C4876   1.396       .  A
C4875      F4882   1.358       .  S
C4876      C4877   1.406       .  A
C4876      F4881   1.358       .  S
C4877      C4878   1.408       .  A
C4878      F4879   1.356       .  S
C4883      C4884   1.402       .  A
C4883      C4888   1.398       .  A
C4883      F4890   1.356       .  S
C4884      C4885   1.405       .  A
C4885      C4886   1.401       .  A
C4885      F4892   1.354       .  S
C4886      C4887   1.403       .  A
C4886      F4891   1.358       .  S
C4887      C4888   1.404       .  A
C4888      F4889   1.358       .  S
C4893      C4894   1.408       .  A
C4893      C4898   1.399       .  A
C4893      F4900   1.358       .  S
C4894      C4895   1.409       .  A
C4895      C4896   1.402       .  A
C4896      C4897   1.406       .  A
C4896      F4901   1.357       .  S
C4897      C4898   1.407       .  A
C4898      F4899   1.358       .  S
C4903      C4904   1.403       .  A
C4903      C4908   1.397       .  A
C4903      F4910   1.358       .  S
C4905      C4906   1.402       .  A
C4905      F4912   1.358       .  S
C4906      F4911   1.357       .  S
C4907      C4908   1.404       .  A
C4908      F4909   1.357       .  S
C4913      C4914   1.408       .  A
C4913      C4918   1.396       .  A
C4913      F4920   1.358       .  S
C4914      C4915   1.410       .  A
C4915      C4916   1.397       .  A
C4915      F4922   1.358       .  S
C4916      C4917   1.407       .  A
C4916      F4921   1.358       .  S
C4917      C4918   1.407       .  A
C4918      F4919   1.356       .  S
C4923      C4924   1.407   1_565  A
C4923      C4928   1.398       .  A
C4923      F4930   1.358       .  S
C4924      C4925   1.405       .  A
C4925      C4926   1.393       .  A
C4925      F4932   1.358       .  S
C4926      C4927   1.402   1_545  A
C4926      F4931   1.352       .  S
C4927      C4928   1.405       .  A
C4928      F4929   1.357       .  S
C4933      C4934   1.412       .  A
C4933      C4938   1.397       .  A
C4933      F4940   1.358       .  S
C4934      C4935   1.406       .  A
C4935      C4936   1.399       .  A
C4935      F4942   1.358       .  S
C4936      C4937   1.408       .  A
C4936      F4941   1.356       .  S
C4937      C4938   1.403       .  A
C4938      F4939   1.358       .  S
C4943      C4944   1.406       .  A
C4943      C4948   1.398       .  A
C4943      F4950   1.358       .  S
C4944      C4945   1.406       .  A
C4945      C4946   1.392       .  A
C4945      F4952   1.358       .  S
C4946      C4947   1.400       .  A
C4946      F4951   1.356       .  S
C4947      C4948   1.403       .  A
C4948      F4949   1.358       .  S
C4953      C4958   1.399       .  A
C4953      F4960   1.358       .  S
C4954      C4955   1.409       .  A
C4955      F4962   1.358       .  S
C4956      C4957   1.405       .  A
C4956      F4961   1.358       .  S
C4957      C4958   1.405       .  A
C4958      F4959   1.358       .  S
C4963      C4964   1.409       .  A
C4963      C4968   1.396       .  A
C4963      F4970   1.358       .  S
C4964      C4965   1.411       .  A
C4965      C4966   1.408       .  A
C4965      F4972   1.358       .  S
C4966      C4967   1.409       .  A
C4966      F4971   1.358       .  S
C4967      C4968   1.407       .  A
C4968      F4969   1.357       .  S
C4973      C4974   1.411       .  A
C4973      C4978   1.396       .  A
C4973      F4980   1.358       .  S
C4974      C4975   1.410       .  A
C4975      C4976   1.401       .  A
C4975      F4982   1.357       .  S
C4976      C4977   1.406       .  A
C4976      F4981   1.354       .  S
C4977      C4978   1.404       .  A
C4978      F4979   1.355       .  S
C4983      C4984   1.412       .  A
C4983      C4988   1.398       .  A
C4983      F4990   1.358       .  S
C4984      C4985   1.411       .  A
C4985      C4986   1.407       .  A
C4985      F4992   1.357       .  S
C4986      C4987   1.410       .  A
C4986      F4991   1.358       .  S
C4987      C4988   1.406       .  A
C4988      F4989   1.359       .  S
C4993      C4998   1.402       .  A
C4993      F5000   1.358       .  S
C4994      C4995   1.404       .  A
C4995      C4996   1.393       .  A
C4995      F5002   1.359       .  S
C4996      C4997   1.409   1_565  A
C4996      F5001   1.359       .  S
C4998      F4999   1.358       .  S
C5003      C5004   1.402       .  A
C5003      C5008   1.399       .  A
C5003      F5010   1.357       .  S
C5004      C5005   1.403       .  A
C5005      C5006   1.397       .  A
C5005      F5012   1.357       .  S
C5006      C5007   1.404       .  A
C5006      F5011   1.358       .  S
C5007      C5008   1.407       .  A
C5008      F5009   1.358       .  S
C5013      C5014   1.401       .  A
C5013      C5018   1.395       .  A
C5013      F5020   1.358       .  S
C5014      C5015   1.404       .  A
C5015      C5016   1.400       .  A
C5015      F5022   1.358       .  S
C5016      C5017   1.404       .  A
C5016      F5021   1.357       .  S
C5017      C5018   1.404       .  A
C5018      F5019   1.358       .  S
C5023      C5024   1.411       .  A
C5023      F5030   1.358       .  S
C5024      C5025   1.409       .  A
C5025      F5032   1.358       .  S
C5026      C5027   1.406       .  A
C5026      F5031   1.357       .  S
C5027      C5028   1.406       .  A
C5028      F5029   1.358       .  S
C5033      C5034   1.409       .  A
C5033      C5038   1.404       .  A
C5033      F5040   1.358       .  S
C5034      C5035   1.408       .  A
C5035      C5036   1.393       .  A
C5035      F5042   1.358       .  S
C5036      C5037   1.407       .  A
C5036      F5041   1.359       .  S
C5037      C5038   1.409       .  A
C5038      F5039   1.358       .  S
C5043      C5044   1.404       .  A
C5043      C5048   1.401       .  A
C5043      F5050   1.358       .  S
C5044      C5045   1.403       .  A
C5045      C5046   1.399       .  A
C5045      F5052   1.356       .  S
C5046      C5047   1.406       .  A
C5046      F5051   1.358       .  S
C5047      C5048   1.407       .  A
C5048      F5049   1.358       .  S
C5053      C5054   1.408       .  A
C5053      C5058   1.396       .  A
C5053      F5060   1.358       .  S
C5054      C5055   1.407       .  A
C5055      C5056   1.401       .  A
C5056      C5057   1.407       .  A
C5057      C5058   1.405       .  A
C5058      F5059   1.358       .  S
C5063      C5064   1.407       .  A
C5063      C5068   1.397       .  A
C5063      F5070   1.355       .  S
C5064      C5065   1.406       .  A
C5065      C5066   1.401       .  A
C5065      F5072   1.358       .  S
C5066      C5067   1.412       .  A
C5066      F5071   1.358       .  S
C5067      C5068   1.407       .  A
C5068      F5069   1.358       .  S
C5073      C5074   1.407       .  A
C5073      C5078   1.401       .  A
C5073      F5080   1.356       .  S
C5074      C5075   1.404       .  A
C5075      C5076   1.397       .  A
C5075      F5082   1.352       .  S
C5076      C5077   1.408       .  A
C5076      F5081   1.358       .  S
C5077      C5078   1.409       .  A
C5078      F5079   1.358       .  S
C5083      C5084   1.407       .  A
C5083      C5088   1.396       .  A
C5083      F5090   1.358       .  S
C5084      C5085   1.408       .  A
C5085      C5086   1.400       .  A
C5085      F5092   1.358       .  S
C5086      C5087   1.405       .  A
C5086      F5091   1.358       .  S
C5087      C5088   1.404       .  A
C5088      F5089   1.358       .  S
C5093      C5094   1.410       .  A
C5093      C5098   1.393       .  A
C5093      F5100   1.358       .  S
C5094      C5095   1.410       .  A
C5095      C5096   1.402       .  A
C5095      F5102   1.357       .  S
C5096      C5097   1.407       .  A
C5096      F5101   1.358       .  S
C5097      C5098   1.405       .  A
C5098      F5099   1.359       .  S
C5103      C5108   1.399       .  A
C5103      F5110   1.358       .  S
C5104      C5105   1.402       .  A
C5105      C5106   1.397       .  A
C5105      F5112   1.358       .  S
C5106      F5111   1.358       .  S
C5107      C5108   1.406       .  A
C5108      F5109   1.358       .  S
C5113      C5114   1.407       .  A
C5113      C5118   1.401       .  A
C5113      F5120   1.358       .  S
C5114      C5115   1.404       .  A
C5115      C5116   1.396       .  A
C5115      F5122   1.358       .  S
C5116      C5117   1.404       .  A
C5116      F5121   1.356       .  S
C5117      C5118   1.404       .  A
C5118      F5119   1.358       .  S
C5123      C5124   1.403       .  A
C5123      C5128   1.395       .  A
C5123      F5130   1.358       .  S
C5124      C5125   1.408       .  A
C5125      C5126   1.403       .  A
C5125      F5132   1.358       .  S
C5126      C5127   1.405       .  A
C5126      F5131   1.358       .  S
C5127      C5128   1.405       .  A
C5128      F5129   1.358       .  S
C5133      C5134   1.407       .  A
C5133      C5138   1.399       .  A
C5133      F5140   1.358       .  S
C5134      C5135   1.408       .  A
C5135      C5136   1.397       .  A
C5135      F5142   1.358       .  S
C5136      C5137   1.405       .  A
C5136      F5141   1.356       .  S
C5137      C5138   1.407       .  A
C5138      F5139   1.358       .  S
C5143      C5144   1.403       .  A
C5143      C5148   1.397       .  A
C5143      F5150   1.352       .  S
C5144      C5145   1.404       .  A
C5145      C5146   1.397       .  A
C5145      F5152   1.358       .  S
C5146      C5147   1.406       .  A
C5146      F5151   1.358       .  S
C5147      C5148   1.403       .  A
C5148      F5149   1.358       .  S
C5153      C5154   1.408       .  A
C5153      C5158   1.402       .  A
C5153      F5160   1.358       .  S
C5154      C5155   1.404       .  A
C5155      C5156   1.393       .  A
C5155      F5162   1.359       .  S
C5156      C5157   1.409       .  A
C5156      F5161   1.358       .  S
C5157      C5158   1.407       .  A
C5158      F5159   1.358       .  S
C5163      C5164   1.402       .  A
C5163      F5170   1.359       .  S
C5165      C5166   1.405   1_455  A
C5166      C5167   1.407       .  A
C5166      F5171   1.357       .  S
C5167      C5168   1.408       .  A
C5168      F5169   1.358       .  S
C5173      C5174   1.408       .  A
C5173      C5178   1.395       .  A
C5173      F5180   1.359       .  S
C5174      C5175   1.408       .  A
C5175      C5176   1.406       .  A
C5175      F5182   1.358       .  S
C5176      C5177   1.410       .  A
C5176      F5181   1.358       .  S
C5177      C5178   1.406       .  A
C5178      F5179   1.358       .  S
C5183      C5184   1.404       .  A
C5183      C5188   1.399       .  A
C5183      F5190   1.358       .  S
C5184      C5185   1.406       .  A
C5185      C5186   1.400       .  A
C5185      F5192   1.358       .  S
C5186      C5187   1.403       .  A
C5186      F5191   1.358       .  S
C5187      C5188   1.405       .  A
C5188      F5189   1.358       .  S
C5193      C5194   1.410       .  A
C5193      F5200   1.358       .  S
C5195      C5196   1.402       .  A
C5195      F5202   1.358       .  S
C5196      C5197   1.407       .  A
C5196      F5201   1.358       .  S
C5197      C5198   1.405       .  A
C5203      C5204   1.412       .  A
C5203      C5208   1.407       .  A
C5204      C5205   1.413       .  A
C5205      C5206   1.400       .  A
C5205      F5212   1.358       .  S
C5206      C5207   1.408       .  A
C5206      F5211   1.358       .  S
C5207      C5208   1.410       .  A
C5213      C5214   1.406       .  A
C5213      C5218   1.401       .  A
C5213      F5220   1.358       .  S
C5214      C5215   1.411       .  A
C5215      C5216   1.400       .  A
C5216      C5217   1.403       .  A
C5216      F5221   1.358       .  S
C5217      C5218   1.406       .  A
C5218      F5219   1.354       .  S
C5223      C5224   1.409       .  A
C5223      C5228   1.405       .  A
C5223      F5230   1.358       .  S
C5224      C5225   1.409       .  A
C5225      C5226   1.399       .  A
C5225      F5232   1.358       .  S
C5226      C5227   1.405       .  A
C5226      F5231   1.358       .  S
C5227      C5228   1.408       .  A
C5228      F5229   1.358       .  S
C5233      C5234   1.406       .  A
C5233      C5238   1.397       .  A
C5233      F5240   1.358       .  S
C5234      C5235   1.408       .  A
C5235      C5236   1.405       .  A
C5235      F5242   1.358       .  S
C5236      C5237   1.409       .  A
C5236      F5241   1.358       .  S
C5237      C5238   1.410       .  A
C5238      F5239   1.358       .  S
C5243      C5244   1.407       .  A
C5243      C5248   1.403       .  A
C5243      F5250   1.358       .  S
C5244      C5245   1.404       .  A
C5245      C5246   1.396       .  A
C5245      F5252   1.357       .  S
C5246      C5247   1.411       .  A
C5246      F5251   1.358       .  S
C5247      C5248   1.410       .  A
C5248      F5249   1.357       .  S
C5253      F5260   1.358       .  S
C5254      C5255   1.409       .  A
C5255      C5256   1.393       .  A
C5255      F5262   1.357       .  S
C5256      C5257   1.409       .  A
C5256      F5261   1.359       .  S
C5257      C5258   1.412       .  A
C5263      C5264   1.409       .  A
C5263      C5268   1.403       .  A
C5263      F5270   1.358       .  S
C5264      C5265   1.406       .  A
C5265      C5266   1.397       .  A
C5265      F5272   1.358       .  S
C5266      C5267   1.402       .  A
C5266      F5271   1.354       .  S
C5267      C5268   1.405       .  A
C5268      F5269   1.356       .  S
C5273      C5274   1.406       .  A
C5273      F5280   1.357       .  S
C5274      C5275   1.407       .  A
C5275      C5276   1.404       .  A
C5275      F5282   1.358       .  S
C5276      F5281   1.357       .  S
C5277      C5278   1.404       .  A
C5278      F5279   1.359       .  S
C5283      C5284   1.403       .  A
C5283      C5288   1.390       .  A
C5283      F5290   1.359       .  S
C5284      C5285   1.405       .  A
C5285      C5286   1.397       .  A
C5285      F5292   1.356       .  S
C5286      C5287   1.409       .  A
C5286      F5291   1.358       .  S
C5287      C5288   1.409       .  A
C5288      F5289   1.357       .  S
C5293      C5298   1.390       .  A
C5293      F5300   1.358   1_455  S
C5294      C5295   1.408       .  A
C5295      C5296   1.397       .  A
C5295      F5302   1.358       .  S
C5296      C5297   1.405       .  A
C5296      F5301   1.358       .  S
C5298      F5299   1.359   1_455  S
C5303      C5304   1.406       .  A
C5303      C5308   1.398       .  A
C5303      F5310   1.358       .  S
C5304      C5305   1.407       .  A
C5305      C5306   1.399       .  A
C5305      F5312   1.358   1_655  S
C5306      C5307   1.405       .  A
C5306      F5311   1.358       .  S
C5307      C5308   1.402       .  A
C5308      F5309   1.353       .  S
C5313      C5314   1.407       .  A
C5313      C5318   1.401       .  A
C5313      F5320   1.358       .  S
C5314      C5315   1.403       .  A
C5315      C5316   1.394       .  A
C5315      F5322   1.358       .  S
C5316      C5317   1.403       .  A
C5316      F5321   1.355       .  S
C5317      C5318   1.404       .  A
C5318      F5319   1.357       .  S
C5323      C5324   1.409       .  A
C5323      C5328   1.396       .  A
C5323      F5330   1.358       .  S
C5324      C5325   1.410       .  A
C5325      C5326   1.404       .  A
C5325      F5332   1.357       .  S
C5326      C5327   1.409       .  A
C5326      F5331   1.358       .  S
C5327      C5328   1.407       .  A
C5328      F5329   1.357       .  S
C5333      C5334   1.408       .  A
C5333      C5338   1.405       .  A
C5333      F5340   1.357       .  S
C5334      C5335   1.402       .  A
C5335      C5336   1.393       .  A
C5335      F5342   1.357       .  S
C5336      C5337   1.410       .  A
C5336      F5341   1.358       .  S
C5337      C5338   1.409       .  A
C5338      F5339   1.357       .  S
C5343      C5344   1.406       .  A
C5343      C5348   1.397       .  A
C5343      F5350   1.358       .  S
C5344      C5345   1.407       .  A
C5345      C5346   1.398       .  A
C5345      F5352   1.353       .  S
C5346      C5347   1.408       .  A
C5346      F5351   1.358       .  S
C5347      C5348   1.411       .  A
C5348      F5349   1.358       .  S
C5353      C5354   1.405       .  A
C5353      C5358   1.401       .  A
C5353      F5360   1.358       .  S
C5354      C5355   1.407       .  A
C5355      C5356   1.391       .  A
C5355      F5362   1.355       .  S
C5356      C5357   1.403       .  A
C5356      F5361   1.359       .  S
C5357      C5358   1.409       .  A
C5358      F5359   1.358       .  S
C5363      C5364   1.411       .  A
C5363      C5368   1.409       .  A
C5364      C5365   1.403       .  A
C5365      C5366   1.386       .  A
C5365      F5372   1.359       .  S
C5366      C5367   1.413       .  A
C5366      F5371   1.354       .  S
C5367      C5368   1.412       .  A
C5368      F5369   1.357       .  S
C5373      C5374   1.401       .  A
C5373      C5378   1.398       .  A
C5374      C5375   1.407       .  A
C5375      C5376   1.401       .  A
C5375      F5382   1.358       .  S
C5376      C5377   1.402       .  A
C5376      F5381   1.358       .  S
C5377      C5378   1.403       .  A
C5383      C5384   1.410       .  A
C5383      C5388   1.404       .  A
C5383      F5390   1.358       .  S
C5384      C5385   1.408       .  A
C5385      C5386   1.391       .  A
C5385      F5392   1.359       .  S
C5386      C5387   1.405       .  A
C5386      F5391   1.354       .  S
C5387      C5388   1.408       .  A
C5388      F5389   1.358       .  S
C5393      C5394   1.408       .  A
C5393      C5398   1.394       .  A
C5393      F5400   1.358       .  S
C5394      C5395   1.411       .  A
C5395      C5396   1.402       .  A
C5395      F5402   1.358       .  S
C5396      C5397   1.407       .  A
C5396      F5401   1.358       .  S
C5397      C5398   1.406       .  A
C5398      F5399   1.355       .  S
C5403      C5404   1.409       .  A
C5403      C5408   1.402       .  A
C5403      F5410   1.357       .  S
C5404      C5405   1.406       .  A
C5405      C5406   1.390       .  A
C5405      F5412   1.359       .  S
C5406      C5407   1.402       .  A
C5406      F5411   1.356       .  S
C5407      C5408   1.405       .  A
C5408      F5409   1.358       .  S
C5413      C5414   1.404       .  A
C5413      C5418   1.396       .  A
C5413      F5420   1.358       .  S
C5414      C5415   1.408       .  A
C5415      C5416   1.397       .  A
C5415      F5422   1.358       .  S
C5416      C5417   1.402       .  A
C5416      F5421   1.358       .  S
C5417      C5418   1.405       .  A
C5418      F5419   1.358       .  S
C5423      C5424   1.411       .  A
C5423      C5428   1.406       .  A
C5423      F5430   1.358       .  S
C5424      C5425   1.406       .  A
C5425      F5432   1.359       .  S
C5426      C5427   1.409       .  A
C5426      F5431   1.356       .  S
C5433      C5434   1.407       .  A
C5433      C5438   1.398       .  A
C5433      F5440   1.358       .  S
C5434      C5435   1.404       .  A
C5435      C5436   1.400       .  A
C5436      C5437   1.405       .  A
C5436      F5441   1.358       .  S
C5437      C5438   1.402       .  A
C5438      F5439   1.356       .  S
C5443      C5444   1.410       .  A
C5443      C5448   1.405       .  A
C5443      F5450   1.357       .  S
C5444      C5445   1.408       .  A
C5445      C5446   1.395       .  A
C5446      C5447   1.404       .  A
C5447      C5448   1.408       .  A
C5448      F5449   1.357       .  S
C5453      C5454   1.406       .  A
C5453      C5458   1.401       .  A
C5453      F5460   1.358       .  S
C5454      C5455   1.404       .  A
C5455      C5456   1.397       .  A
C5455      F5462   1.355       .  S
C5456      C5457   1.408       .  A
C5456      F5461   1.358       .  S
C5457      C5458   1.409       .  A
C5458      F5459   1.358       .  S
C5463      C5464   1.407       .  A
C5463      C5468   1.404       .  A
C5463      F5470   1.358       .  S
C5464      C5465   1.403       .  A
C5465      C5466   1.397       .  A
C5465      F5472   1.353       .  S
C5466      C5467   1.406       .  A
C5466      F5471   1.358       .  S
C5467      C5468   1.409       .  A
C5468      F5469   1.358       .  S
