geometry optimzed in LAMMPS
_audit_creation_date              2020-11-30 
_audit_creation_method            'lammps2cif' 
_symmetry_space_group_name_H-M    'P1' 
_symmetry_Int_Tables_number       1 
_symmetry_cell_setting            triclinic 
loop_ 
_symmetry_equiv_pos_as_xyz 
  x,y,z 
_cell_length_a                    49.299829 
_cell_length_b                    49.181462409471685 
_cell_length_c                    35.541745913741316 
_cell_angle_alpha                 97.758436907681 
_cell_angle_beta                  80.23566366254849 
_cell_angle_gamma                 129.6604348529204 
loop_ 
_atom_site_label 
_atom_site_type_symbol 
_atom_site_fract_x 
_atom_site_fract_y 
_atom_site_fract_z 
_atom_site_charge 
C1          C  0.32681329  0.15904801  0.02783803     0.30500
C2          C  0.33116309  0.16337276  0.44903027     0.30500
C3          C  0.34528571  0.14640559  0.00066342    -0.05700
C4          C  0.29144532  0.13731748  0.01038028    -0.06500
C5          C  0.34633545  0.19625615  0.01321712    -0.06400
C6          C  0.35046585  0.15126860  0.46133354    -0.05700
C7          C  0.29420628  0.13738873  0.47021874    -0.06500
C8          C  0.34710059  0.19765731  0.47432540    -0.06400
C9          C  0.36862058  0.13976360  0.44293525    -0.31700
N10         N  0.37572126  0.12821174  0.46946188     0.14800
C11         C  0.35788700  0.12879708  0.00432606    -0.31800
H12         H  0.35757827  0.11980465  0.03064899     0.16700
C13         C  0.26067410  0.11536287  0.45956212    -0.30700
N14         N  0.23737947  0.10256845  0.99230816     0.13500
C15         C  0.25582480  0.11297381  0.02258905    -0.30700
C16         C  0.36784570  0.23335071  0.46859572    -0.31000
N17         N  0.37629731  0.25265340  0.00160053     0.14000
H18         H  0.37753739  0.24594695  0.44146247     0.16600
C19         C  0.36274400  0.22967402  0.02977305    -0.31000
H20         H  0.36433352  0.23670844  0.05997113     0.16600
H21         H  0.24392121  0.10351961  0.05116880     0.16600
H22         H  0.37578256  0.13938830  0.41247898     0.16700
H23         H  0.25334871  0.11323663  0.43162396     0.16600
C24         C  0.32545879  0.15684009  0.27781696     0.30500
C25         C  0.32325148  0.15089275  0.19843161     0.30500
C26         C  0.34355798  0.14276053  0.25315020    -0.05700
C27         C  0.28838975  0.13247961  0.26349173    -0.06500
C28         C  0.34358310  0.19156085  0.25703245    -0.06400
C29         C  0.34135517  0.13865342  0.21348431    -0.05700
C30         C  0.28717479  0.12921283  0.22369171    -0.06500
C31         C  0.34205220  0.18770697  0.21739110    -0.06400
C32         C  0.35508269  0.12191334  0.19827729    -0.31700
N33         N  0.36750568  0.11804964  0.22656644     0.14800
C34         C  0.36113060  0.13090991  0.25993221    -0.31800
H35         H  0.36823479  0.13088342  0.28709543     0.16700
C36         C  0.25179756  0.10683377  0.21798122    -0.30700
N37         N  0.23187037  0.09749008  0.25246720     0.13500
C38         C  0.25386277  0.11320068  0.28040488    -0.30700
C39         C  0.35888671  0.22009259  0.20355860    -0.31000
N40         N  0.37081527  0.24429746  0.23288182     0.14000
H41         H  0.36195425  0.22566786  0.17400067     0.16600
C42         C  0.36213996  0.22748915  0.26564101    -0.31000
H43         H  0.36847388  0.24055564  0.29345500     0.16600
H44         H  0.24540530  0.11181384  0.31073478     0.16600
H45         H  0.35570660  0.11273989  0.16894962     0.16700
H46         H  0.24107593  0.09899885  0.19085783     0.16600
O47         O  0.03781735  0.45314677  0.38016057    -0.74800
O48         O  0.03359546  0.45039405  0.44423139    -0.53700
C49         C  0.04303392  0.44531173  0.40986966     0.78900
O50         O  0.06584831  0.11237182  0.38873823    -0.59400
O51         O  0.51444668  0.08650565  0.36164759    -0.52400
C52         C  0.04741711  0.11449019  0.36936482     0.70900
O53         O  0.10298736  0.06730570  0.44937082    -0.74000
O54         O  0.07236924  0.01599134  0.48097593    -0.54500
C55         C  0.10080428  0.04624245  0.46999594     0.76900
O56         O  0.99951075  0.49719166  0.31828954    -0.59100
O57         O  0.45492625  0.99613903  0.32618971    -0.52200
C58         C  0.46986705  0.98350489  0.31016259     0.73500
Zr59       Zr  0.00726156  0.47402293  0.36540932     2.54700
O60         O  0.05376081  0.98529780  0.31468732    -0.79700
O61         O  0.46537198  0.41474537  0.33808154    -0.93100
Zr62       Zr  0.06364543  0.06822639  0.41709585     2.64700
O63         O  0.10857056  0.08377046  0.36339382    -0.98000
O64         O  0.10567436  0.12580508  0.44759358    -0.80100
O65         O  0.04681962  0.01050182  0.41222678    -0.83500
O66         O  0.02687693  0.03346689  0.36845079    -2.18200
O67         O  0.38388009  0.43676789  0.39873188    -0.66800
O68         O  0.41011583  0.49032121  0.37460195    -0.51400
C69         C  0.38420155  0.45734185  0.37954288     0.71900
O70         O  0.46935692  0.99465396  0.03050962    -0.59800
O71         O  0.99974754  0.48192923  0.03801978    -0.51700
C72         C  0.49354070  0.50455994  0.04832542     0.73700
O73         O  0.44923651  0.05823500  0.47673777    -0.71100
O74         O  0.44987167  0.05726209  0.41247279    -0.49800
C75         C  0.44327457  0.06508292  0.44688716     0.75100
O76         O  0.41378571  0.39638490  0.47537649    -0.66500
O77         O  0.46714664  0.41970006  0.49367274    -0.53700
C78         C  0.43404024  0.39408684  0.49089374     0.73500
Zr79       Zr  0.41976867  0.44035243  0.44120591     2.77500
O80         O  0.37507601  0.42979975  0.49301835    -0.97200
O81         O  0.37649269  0.38081033  0.41547243    -0.78000
Zr82       Zr  0.47787433  0.03535392  0.49138931     2.70100
O83         O  0.44695946  0.54458424  0.04940423    -0.79300
O84         O  0.02472806  0.09239879  0.01762749    -0.98400
Zr85       Zr  0.00930015  0.47980541  0.46957814     2.21500
Zr86       Zr  0.47272523  0.02665977  0.38637740     2.11100
O87         O  0.43629430  0.49826691  0.44620649    -2.47100
O88         O  0.45709837  0.47672359  0.48825550    -0.79100
O89         O  0.45429560  0.46876487  0.38446870    -0.71300
O90         O  0.03164373  0.04124594  0.47549500    -2.32200
O91         O  0.47045483  0.44318094  0.42343292    -2.28400
O92         O  0.01316442  0.06550473  0.43349861    -0.73000
H93         H  0.04118473  0.04771380  0.34630771     0.79000
H94         H  0.04560450  0.05230276  0.99388964     0.80000
H95         H  0.41505307  0.49598389  0.45079810     0.82300
H96         H  0.46430894  0.42009776  0.42116925     0.79900
H97         H  0.10057057  0.12132983  0.47523667     0.42900
H98         H  0.03562484  0.10867828  0.99630269     0.41900
H99         H  0.42161315  0.52726186  0.04515477     0.41600
H100        H  0.38511431  0.45339200  0.50509885     0.39500
H101        H  0.39033212  0.37728477  0.39486373     0.42600
H102        H  0.44151200  0.40791917  0.34538494     0.37400
H103        H  0.07615148  0.00059966  0.32669391     0.43500
H104        H  0.13126163  0.09896053  0.37483091     0.39900
H105        H  0.35523577  0.42325345  0.48012819     0.44900
H106        H  0.46560077  0.39910570  0.35263373     0.43600
H107        H  0.10476992  0.06155413  0.35568382     0.43700
H108        H  0.51175902  0.09957266  0.03338928     0.44100
O109        O  0.05939956  0.47696861  0.12682943    -0.74800
O110        O  0.04006597  0.45724381  0.18692346    -0.53700
C111        C  0.05670568  0.46021942  0.15403848     0.78900
O112        O  0.06187942  0.12166673  0.17689307    -0.59400
O113        O  0.52120537  0.10045681  0.13489006    -0.52400
C114        C  0.04811391  0.12563667  0.15250062     0.70900
O115        O  0.09214868  0.06670463  0.22925671    -0.74000
O116        O  0.06305109  0.00989599  0.24450578    -0.54500
C117        C  0.09074275  0.04284537  0.24283251     0.76900
O118        O  0.04430556  0.54514869  0.07084919    -0.59100
O119        O  0.50919673  0.05454836  0.07545344    -0.52200
C120        C  0.52075050  0.03827152  0.06070857     0.73500
Zr121      Zr  0.03941800  0.51022978  0.11718913     2.54700
O122        O  0.10647707  0.05556828  0.10837736    -0.79700
O123        O  0.55537599  0.49271960  0.05721726    -0.93100
Zr124      Zr  0.05384169  0.07330371  0.20409457     2.64700
O125        O  0.11494351  0.12418582  0.18501867    -0.98000
O126        O  0.05921632  0.10450120  0.26536127    -0.80100
O127        O  0.05510720  0.02640686  0.17937052    -0.83500
O128        O  0.04080668  0.05622385  0.14083209    -2.18200
O129        O  0.40056660  0.44843130  0.11665680    -0.66800
O130        O  0.42661273  0.50624476  0.11183071    -0.51400
C131        C  0.40068383  0.47300021  0.10768441     0.71900
O132        O  0.43315466  0.95215653  0.26250234    -0.59800
O133        O  0.97010945  0.44427669  0.27113848    -0.51700
C134        C  0.45079138  0.45416542  0.28415743     0.73700
O135        O  0.42378049  0.03007695  0.22542921    -0.71100
O136        O  0.45231844  0.05992661  0.17038204    -0.49800
C137        C  0.43084586  0.05137371  0.20096165     0.75100
O138        O  0.42521156  0.39485129  0.18003634    -0.66500
O139        O  0.46937415  0.41274190  0.21417487    -0.53700
C140        C  0.43976494  0.38856340  0.20050378     0.73500
Zr141      Zr  0.43676263  0.44410269  0.15047266     2.77500
O142        O  0.37432697  0.39576053  0.16985014    -0.97200
O143        O  0.43715345  0.41460201  0.08990175    -0.78000
Zr144      Zr  0.45209727  0.00694653  0.24018041     2.70100
O145        O  0.39676665  0.48320610  0.28737871    -0.79300
O146        O  0.97779237  0.05237187  0.29128289    -0.98400
Zr147      Zr  0.00619716  0.47564479  0.21449912     2.21500
Zr148      Zr  0.48240523  0.03764617  0.13963862     2.11100
O149        O  0.43430411  0.48978583  0.17871989    -2.47100
O150        O  0.44990306  0.46084399  0.21346943    -0.79100
O151        O  0.48505267  0.49564548  0.12493383    -0.71300
O152        O  0.00954007  0.02413459  0.24179419    -2.34000
O153        O  0.49377358  0.46023685  0.15049735    -2.28400
O154        O  0.99684706  0.05674093  0.20354031    -0.73000
H155        H  0.05867095  0.07758082  0.12697754     0.79000
H156        H  0.01764480  0.03193164  0.26689767     0.80000
H157        H  0.41128225  0.48331378  0.17864113     0.82300
H158        H  0.49288152  0.44039045  0.14098715     0.79900
H159        H  0.06343090  0.09387916  0.28299107     0.42900
H160        H  0.99075436  0.07488330  0.27837208     0.41900
H161        H  0.37752625  0.46121562  0.27456965     0.41600
H162        H  0.36509958  0.40731346  0.18489549     0.39500
H163        H  0.41596468  0.38951208  0.09324953     0.42600
H164        H  0.54189476  0.46703547  0.05939963     0.37400
H165        H  0.11424299  0.05861418  0.13360209     0.43500
H166        H  0.12438693  0.13767101  0.20915415     0.39900
H167        H  0.36253824  0.38668264  0.14614788     0.44900
H168        H  0.58054783  0.50333399  0.05670781     0.43600
H169        H  0.12761711  0.11454111  0.17675803     0.43700
H170        H  0.45496850  0.04692384  0.30810258     0.44100
C171        C  0.15780015  0.35031175  0.32292178     0.30500
C172        C  0.15416457  0.34641920  0.40187708     0.30500
C173        C  0.14986228  0.37261547  0.34932438    -0.05700
C174        C  0.12921660  0.31285106  0.34004403    -0.06500
C175        C  0.19094580  0.36097733  0.33811498    -0.06400
C176        C  0.14728055  0.37007241  0.38891872    -0.05700
C177        C  0.12701881  0.31111890  0.38018986    -0.06500
C178        C  0.18900857  0.35964344  0.37768583    -0.06400
C179        C  0.12611625  0.37865989  0.40558111    -0.31700
N180        N  0.11817634  0.38896959  0.37854062     0.14800
C181        C  0.13248275  0.38508542  0.34407830    -0.31800
H182        H  0.12964740  0.38963901  0.31664859     0.16700
C183        C  0.10813144  0.27604880  0.38777700    -0.30700
N184        N  0.10038269  0.25664186  0.35451176     0.13500
C185        C  0.11389152  0.27876164  0.32531523    -0.30700
C186        C  0.22201546  0.37434272  0.38608268    -0.31000
N187        N  0.24370269  0.38388993  0.35303087     0.14000
H188        H  0.23029902  0.37963834  0.41429361     0.16600
C189        C  0.22510114  0.37498759  0.32342722    -0.31000
H190        H  0.23636019  0.38039529  0.29390044     0.16600
H191        H  0.11552311  0.27126586  0.29546893     0.16600
H192        H  0.11505891  0.37510850  0.43521972     0.16700
H193        H  0.10296199  0.26556738  0.41524438     0.16600
C194        C  0.16462656  0.35537980  0.07258748     0.30500
C195        C  0.16747799  0.36187153  0.15186536     0.30500
C196        C  0.14322383  0.36549023  0.09767616    -0.05700
C197        C  0.15047773  0.32175122  0.09275896    -0.06500
C198        C  0.20182652  0.38305823  0.08694383    -0.06400
C199        C  0.14544671  0.36949535  0.13698747    -0.05700
C200        C  0.15363928  0.32605403  0.13203754    -0.06500
C201        C  0.20334499  0.38634339  0.12695358    -0.06400
C202        C  0.13073761  0.38513977  0.15243072    -0.31700
N203        N  0.11783287  0.38923815  0.12448065     0.14800
C204        C  0.12437332  0.37599361  0.09121127    -0.31800
H205        H  0.11645206  0.37410124  0.06392129     0.16700
C206        C  0.13905837  0.29401257  0.14522005    -0.30700
N207        N  0.12369564  0.26918678  0.11687525     0.13500
C208        C  0.12997663  0.28559943  0.08478407    -0.30700
C209        C  0.23837136  0.40437696  0.13195303    -0.31000
N210        N  0.25792753  0.41301757  0.09734881     0.14000
H211        H  0.24881745  0.40830562  0.15830334     0.16600
C212        C  0.23600499  0.39959953  0.06971177    -0.31000
H213        H  0.24397735  0.39981941  0.03937202     0.16600
H214        H  0.11810762  0.27192522  0.05870941     0.16600
H215        H  0.13134744  0.39459587  0.18181370     0.16700
H216        H  0.13794848  0.28871234  0.17424341     0.16600
C217        C  0.16422434  0.36154518  0.19705243     0.00300
C218        C  0.19226117  0.38800317  0.21872110    -0.11500
C219        C  0.18999966  0.38597644  0.25888174     0.02600
C220        C  0.16048574  0.35515534  0.27891632     0.00300
C221        C  0.13094419  0.33102384  0.25818496    -0.11500
C222        C  0.13197431  0.33497198  0.21895699     0.02500
H223        H  0.21533768  0.41171902  0.20499921     0.15400
H224        H  0.10604732  0.30974037  0.27307645     0.15400
C225        C  0.09877096  0.31208024  0.20243836     0.37100
C226        C  0.21750755  0.41732733  0.27884433     0.37000
N227        N  0.07211573  0.29394287  0.18930857    -0.43200
N228        N  0.23974324  0.44266251  0.29449938    -0.43200
C229        C  0.15657378  0.34761284  0.44618594     0.00300
C230        C  0.16460388  0.37706356  0.46985061    -0.11500
C231        C  0.16946610  0.38069111  0.50903114     0.02600
C232        C  0.16409576  0.35382104  0.02785834     0.00300
C233        C  0.15956300  0.32606777  0.50355283    -0.11500
C234        C  0.15846758  0.32436908  0.46345082     0.02500
H235        H  0.17008256  0.39913129  0.45720594     0.15400
H236        H  0.16121633  0.30792619  0.51482087     0.15400
C237        C  0.16441025  0.30171443  0.44058074     0.37100
C238        C  0.18560602  0.41539831  0.02711523     0.37000
N239        N  0.17003704  0.28399545  0.42270306    -0.43200
N240        N  0.19839428  0.44303318  0.04168060    -0.43200
C241        C  0.10127018  0.23182721  0.12304267     0.00300
C242        C  0.08095128  0.21919907  0.15876566    -0.11500
C243        C  0.06348769  0.18470686  0.16888577     0.02600
C244        C  0.06509367  0.16168319  0.14254104     0.00300
C245        C  0.08316542  0.17315272  0.10592161    -0.11500
C246        C  0.10159992  0.20812136  0.09608109     0.02500
H247        H  0.07945562  0.23668807  0.17936273     0.15400
H248        H  0.08394345  0.15508670  0.08550064     0.15400
C249        C  0.12212785  0.21930258  0.05918415     0.37100
C250        C  0.04423317  0.17356794  0.20646449     0.37000
N251        N  0.13848266  0.22810898  0.02950181    -0.43200
N252        N  0.53477688  0.16540551  0.23932379    -0.43200
C253        C  0.29518698  0.43014740  0.09190205     0.00300
C254        C  0.31932441  0.46549150  0.10414821    -0.11500
C255        C  0.35506571  0.48155150  0.10524656     0.02600
C256        C  0.36689100  0.46139054  0.09577227     0.00300
C257        C  0.34286570  0.42652641  0.08110153    -0.11500
C258        C  0.30750704  0.41113102  0.07854271     0.02500
H259        H  0.30985019  0.48027191  0.11382256     0.15400
H260        H  0.35132944  0.41070122  0.07302280     0.15400
C261        C  0.28371724  0.37516009  0.06411582     0.37100
C262        C  0.38050618  0.01679798  0.11174946     0.37000
N263        N  0.26454319  0.34641393  0.05223113    -0.43200
N264        N  0.39919078  0.04666097  0.11994035    -0.43200
C265        C  0.07279382  0.44225571  0.14692554     0.00300
C266        C  0.08752291  0.44115715  0.10984820    -0.11500
C267        C  0.10190907  0.42366255  0.10121751     0.02600
C268        C  0.10168567  0.40621849  0.13031818     0.00300
C269        C  0.08629432  0.40689538  0.16718762    -0.11500
C270        C  0.07252746  0.42480580  0.17590677     0.02500
H271        H  0.08776727  0.45400828  0.08711833     0.15400
H272        H  0.08469058  0.39305744  0.18978828     0.15400
C273        C  0.05851777  0.42447945  0.21519638     0.37100
C274        C  0.11651274  0.42489187  0.06213864     0.37000
N275        N  0.04734759  0.42407264  0.24669794    -0.43200
N276        N  0.12731578  0.42615512  0.03030157    -0.43200
C277        C  0.06296287  0.15084402  0.35841895     0.00300
C278        C  0.04045444  0.15709117  0.34980343    -0.11500
C279        C  0.05292559  0.19170295  0.34610005     0.02600
C280        C  0.08832198  0.22093104  0.35126443     0.00300
C281        C  0.11138478  0.21486870  0.35725190    -0.11500
C282        C  0.09937086  0.18049739  0.36041313     0.02500
H283        H  0.01266139  0.13509493  0.34760618     0.15400
H284        H  0.13885341  0.23734090  0.36035493     0.15400
C285        C  0.12529741  0.17691763  0.36601356     0.37100
C286        C  0.02876509  0.19689904  0.33839539     0.37000
N287        N  0.14619260  0.17421428  0.37047040    -0.43200
N288        N  0.00947062  0.20111914  0.33195273    -0.43200
C289        C  0.35138711  0.44175824  0.36375374     0.00300
C290        C  0.33604165  0.45816158  0.37325196    -0.11500
C291        C  0.30091101  0.44006505  0.36748010     0.02600
C292        C  0.28122231  0.40550920  0.35124154     0.00300
C293        C  0.29761524  0.39054206  0.33809777    -0.11500
C294        C  0.33265938  0.40839742  0.34443356     0.02500
H295        H  0.35052355  0.48389270  0.38791577     0.15400
H296        H  0.28230273  0.36407566  0.32523086     0.15400
C297        C  0.34853663  0.39169914  0.33198256     0.37100
C298        C  0.28474865  0.45634135  0.38077141     0.37000
N299        N  0.36135468  0.37842827  0.32195879    -0.43200
N300        N  0.27180774  0.46937167  0.39170039    -0.43200
C301        C  0.06110943  0.42942937  0.40346417     0.00300
C302        C  0.05910522  0.41133649  0.36847899    -0.11500
C303        C  0.07624814  0.39659788  0.36016468     0.02600
C304        C  0.09791475  0.40155346  0.38631952     0.00300
C305        C  0.09934634  0.41910326  0.42157390    -0.11500
C306        C  0.08049601  0.43194091  0.43081059     0.02500
H307        H  0.04316651  0.40776961  0.34773945     0.15400
H308        H  0.11544571  0.42297222  0.44226169     0.15400
C309        C  0.08178037  0.44728227  0.46871082     0.37100
C310        C  0.06895352  0.37476764  0.32574505     0.37000
N311        N  0.08289534  0.45899956  0.49943839    -0.43200
N312        N  0.06261183  0.35715738  0.29813327    -0.43200
C313        C  0.38368967  0.10177665  0.22193884     0.00300
C314        C  0.36289480  0.06585240  0.22908663    -0.11500
C315        C  0.37773561  0.04885089  0.22300515     0.02600
C316        C  0.41388539  0.06799670  0.20885857     0.00300
C317        C  0.43470124  0.10421503  0.20228848    -0.11500
C318        C  0.41990424  0.12121783  0.20922501     0.02500
H319        H  0.33497937  0.05113353  0.23905246     0.15400
H320        H  0.46267347  0.11934667  0.19226748     0.15400
C321        C  0.44224652  0.15874317  0.20404657     0.37100
C322        C  0.35506337  0.01163698  0.23029159     0.37000
N323        N  0.46013990  0.18891312  0.20037349    -0.43200
N324        N  0.33473911  0.48460396  0.24537102    -0.43200
C325        C  0.38668834  0.28063197  0.22843986     0.00300
C326        C  0.37315433  0.28772454  0.20305150    -0.11500
C327        C  0.39004649  0.32206795  0.19290132     0.02600
C328        C  0.42094774  0.35108206  0.20958221     0.00300
C329        C  0.43387909  0.34396489  0.23614985    -0.11500
C330        C  0.41722830  0.30920525  0.24545341     0.02500
H331        H  0.34948916  0.26590457  0.19007098     0.15400
H332        H  0.45740406  0.36555494  0.24947884     0.15400
C333        C  0.43289620  0.30367609  0.27117774     0.37100
C334        C  0.37543839  0.32580711  0.16390649     0.37000
N335        N  0.44552404  0.29943499  0.29195645    -0.43200
N336        N  0.36350101  0.32815933  0.14037488    -0.43200
C337        C  0.19476480  0.08096983  0.25772208     0.00300
C338        C  0.18473377  0.10187727  0.27060253    -0.11500
C339        C  0.15033792  0.08930456  0.26823202     0.02600
C340        C  0.12459486  0.05442063  0.25404708     0.00300
C341        C  0.13406362  0.03255098  0.24405502    -0.11500
C342        C  0.16899769  0.04577460  0.24517866     0.02500
H343        H  0.20467127  0.12905458  0.27991594     0.15400
H344        H  0.11494988  0.00598121  0.23261342     0.15400
C345        C  0.17830826  0.02335786  0.23192693     0.37100
C346        C  0.14306618  0.11370710  0.27822729     0.37000
N347        N  0.18566975  0.00528574  0.22126540    -0.43200
N348        N  0.13754150  0.13352373  0.28567717    -0.43200
C349        C  0.39344549  0.11318932  0.46239279     0.00300
C350        C  0.41903089  0.12384919  0.48605146    -0.11500
C351        C  0.43569598  0.10873164  0.48155496     0.02600
C352        C  0.42702344  0.08249497  0.45250944     0.00300
C353        C  0.40176867  0.07218123  0.42849667    -0.11500
C354        C  0.38465967  0.08688871  0.43349359     0.02500
H355        H  0.42595847  0.14413070  0.50820591     0.15400
H356        H  0.39450811  0.05168986  0.40650027     0.15400
C357        C  0.35667912  0.07288191  0.41022486     0.37100
C358        C  0.46207545  0.12129234  0.50664191     0.37000
N359        N  0.33417149  0.06146690  0.39158084    -0.43200
N360        N  0.98464735  0.13468924  0.52547199    -0.43200
C361        C  0.41919269  0.35861567  0.50269921     0.00300
C362        C  0.44132960  0.34925085  0.49618753    -0.11500
C363        C  0.42734517  0.31413305  0.49840276     0.02600
C364        C  0.39081148  0.28777276  0.50815842     0.00300
C365        C  0.36992445  0.29859673  0.01555807    -0.11500
C366        C  0.38348421  0.33356907  0.01262347     0.02500
H367        H  0.46928766  0.36891266  0.48675782     0.15400
H368        H  0.34175587  0.27805561  0.02298034     0.15400
C369        C  0.35934711  0.34137619  0.02126234     0.37100
C370        C  0.45062144  0.30534611  0.48892707     0.37000
N371        N  0.33993032  0.34754509  0.02816318    -0.43200
N372        N  0.46946106  0.29849181  0.48134929    -0.43200
C373        C  0.13381434  0.05687955  0.48034788     0.00300
C374        C  0.14671179  0.03967419  0.46146879    -0.11500
C375        C  0.17986245  0.05112175  0.46738572     0.02600
C376        C  0.20055981  0.08041913  0.49212685     0.00300
C377        C  0.18459360  0.09688403  0.01461797    -0.11500
C378        C  0.15102759  0.08417281  0.00816414     0.02500
H379        H  0.13150010  0.01825364  0.44090314     0.15400
H380        H  0.19989166  0.11954577  0.03387078     0.15400
C381        C  0.13697751  0.10115268  0.02790530     0.37100
C382        C  0.19275144  0.03327581  0.44703358     0.37000
N383        N  0.12578289  0.11489792  0.04346671    -0.43200
N384        N  0.20292063  0.01877425  0.43082752    -0.43200
C385        C  0.32984212  0.16297274  0.40471403     0.00300
C386        C  0.32213513  0.13355007  0.38143589    -0.11500
C387        C  0.31779770  0.12985799  0.34207771     0.02600
C388        C  0.32521836  0.15782008  0.32259999     0.00300
C389        C  0.32749871  0.18434376  0.34679316    -0.11500
C390        C  0.32757939  0.18577588  0.38706051     0.02500
H391        H  0.31692823  0.11183354  0.39468855     0.15400
H392        H  0.32544302  0.20199637  0.33500703     0.15400
C393        C  0.31854682  0.20622756  0.40940342     0.37100
C394        C  0.30168306  0.09539431  0.32380599     0.37000
N395        N  0.31045786  0.22211611  0.42694289    -0.43200
N396        N  0.28827147  0.06759841  0.30940922    -0.43200
C397        C  0.32557289  0.15733977  0.07227412     0.00300
C398        C  0.35344277  0.16258462  0.08720989    -0.11500
C399        C  0.35374892  0.16146485  0.12684462     0.02600
C400        C  0.32400409  0.15156328  0.15379274     0.00300
C401        C  0.29903356  0.15182907  0.13950061    -0.11500
C402        C  0.30059781  0.15632164  0.10024490     0.02500
H403        H  0.37675473  0.17036573  0.06813798     0.15400
H404        H  0.27977065  0.15161555  0.15955584     0.15400
C405        C  0.27966557  0.16498347  0.09071940     0.37100
C406        C  0.38720320  0.17560160  0.13878591     0.37000
N407        N  0.26334890  0.17259218  0.08329677    -0.43200
N408        N  0.41454050  0.18762677  0.14756805    -0.43200
C409        C  0.32664093  0.15761304  0.52783349     0.30500
C410        C  0.33078148  0.16424172  0.94899836     0.30500
C411        C  0.34784923  0.14791327  0.50084723    -0.05700
C412        C  0.29152458  0.13393024  0.50950554    -0.06500
C413        C  0.34391369  0.19439571  0.51393910    -0.06400
C414        C  0.34791909  0.14971360  0.96123250    -0.05700
C415        C  0.29386956  0.14054306  0.97105923    -0.06500
C416        C  0.34907440  0.19912914  0.97355184    -0.06400
C417        C  0.36432511  0.13630831  0.94281690    -0.31700
N418        N  0.36977256  0.12305356  0.96917397     0.14800
C419        C  0.36294864  0.13273934  0.50457544    -0.31800
H420        H  0.36332020  0.12394870  0.53063923     0.16700
C421        C  0.26024170  0.11907264  0.96086626    -0.30700
N422        N  0.23758504  0.09849348  0.49076138     0.13500
C423        C  0.25586810  0.10904266  0.52125672    -0.30700
C424        C  0.36905172  0.23463682  0.96742316    -0.31000
N425        N  0.37471438  0.25101932  0.50296137     0.14000
H426        H  0.37751540  0.24681446  0.94021085     0.16600
C427        C  0.36043938  0.22766862  0.53088785    -0.31000
H428        H  0.36231611  0.23447737  0.56110910     0.16600
H429        H  0.24374841  0.09999498  0.54991459     0.16600
H430        H  0.37215361  0.13668236  0.91246980     0.16700
H431        H  0.25274403  0.11626625  0.93281134     0.16600
C432        C  0.32438875  0.15571358  0.77772913     0.30500
C433        C  0.32158458  0.14958713  0.69854496     0.30500
C434        C  0.34034492  0.13940220  0.75304935    -0.05700
C435        C  0.28726358  0.13316871  0.76389425    -0.06500
C436        C  0.34420777  0.19060334  0.75658814    -0.06400
C437        C  0.33771691  0.13516143  0.71349864    -0.05700
C438        C  0.28574013  0.12977450  0.72415685    -0.06500
C439        C  0.34235258  0.18675408  0.71702608    -0.06400
C440        C  0.34999046  0.11705490  0.69810292    -0.31700
N441        N  0.36179375  0.11220743  0.72625075     0.14800
C442        C  0.35684717  0.12627040  0.75952505    -0.31800
H443        H  0.36460799  0.12661322  0.78639780     0.16700
C444        C  0.25034908  0.10817212  0.71880414    -0.30700
N445        N  0.23076085  0.09956776  0.75345059     0.13500
C446        C  0.25293169  0.11484239  0.78115877    -0.30700
C447        C  0.35899612  0.21922891  0.70335054    -0.31000
N448        N  0.37133634  0.24334159  0.73274428     0.14000
H449        H  0.36102964  0.22484305  0.67411439     0.16600
C450        C  0.36302141  0.22650532  0.76530735    -0.31000
H451        H  0.36933700  0.23951743  0.79316685     0.16600
H452        H  0.24469705  0.11323042  0.81155534     0.16600
H453        H  0.35061386  0.10822896  0.66861437     0.16700
H454        H  0.23931617  0.09972603  0.69181910     0.16600
O455        O  0.03470668  0.44975601  0.88005903    -0.74800
O456        O  0.03203790  0.44908491  0.94426883    -0.53700
C457        C  0.04029245  0.44255058  0.90997289     0.78900
O458        O  0.06325929  0.11013888  0.88955814    -0.59400
O459        O  0.51228835  0.08413852  0.85889440    -0.52400
C460        C  0.04464649  0.11230914  0.87051382     0.70900
O461        O  0.10090938  0.06566582  0.94976155    -0.74000
O462        O  0.07110665  0.01417241  0.98071006    -0.54500
C463        C  0.09922078  0.04480961  0.97015580     0.76900
O464        O  0.99856134  0.49478028  0.81648884    -0.59100
O465        O  0.45371301  0.99240984  0.82415816    -0.52200
C466        C  0.46941785  0.98056859  0.80782791     0.73500
Zr467      Zr  0.00693881  0.47363854  0.86559371     2.54700
O468        O  0.05228561  0.98142156  0.81505383    -0.79700
O469        O  0.46873577  0.41734766  0.83454443    -0.93100
Zr470      Zr  0.06127193  0.06554836  0.91689456     2.64700
O471        O  0.10644816  0.08076432  0.86393832    -0.98000
O472        O  0.10344079  0.12295875  0.94760072    -0.80100
O473        O  0.04517902  0.00811005  0.91188231    -0.83500
O474        O  0.02501924  0.03049644  0.86774385    -2.18200
O475        O  0.38531986  0.43896259  0.89674404    -0.66800
O476        O  0.41132783  0.49306523  0.87448328    -0.51400
C477        C  0.38538384  0.45994844  0.87861304     0.71900
O478        O  0.46878560  0.99335950  0.53022265    -0.59800
O479        O  0.00418934  0.48538784  0.53729151    -0.51700
C480        C  0.49015292  0.50147291  0.54936481     0.73700
O481        O  0.44691641  0.05553727  0.97474890    -0.71100
O482        O  0.44614959  0.05359044  0.91070430    -0.49800
C483        C  0.43966848  0.06145069  0.94524859     0.75100
O484        O  0.41462404  0.39804490  0.97355667    -0.66500
O485        O  0.46767542  0.42110824  0.99249055    -0.53700
C486        C  0.43469993  0.39553649  0.98917885     0.73500
Zr487      Zr  0.42074471  0.44271646  0.94050550     2.77500
O488        O  0.37807755  0.43635983  0.99250836    -0.97200
O489        O  0.37355226  0.38337320  0.91756672    -0.78000
Zr490      Zr  0.47715653  0.03442482  0.98947926     2.70100
O491        O  0.44250763  0.54021422  0.54884822    -0.79300
O492        O  0.02841826  0.09606895  0.51824909    -0.98400
Zr493      Zr  0.00757228  0.47839643  0.97010930     2.21500
Zr494      Zr  0.47076652  0.02439414  0.88423641     2.11100
O495        O  0.43797571  0.50078018  0.94581323    -2.47100
O496        O  0.45812406  0.47857651  0.98799801    -0.79100
O497        O  0.45575162  0.47072334  0.88385171    -0.71300
O498        O  0.02907489  0.03808919  0.97508359    -2.32200
O499        O  0.47110072  0.44487807  0.92241475    -2.28400
O500        O  0.01049956  0.06218423  0.93299236    -0.73000
H501        H  0.03876355  0.04409312  0.84510319     0.79000
H502        H  0.04823856  0.05527894  0.49429653     0.80000
H503        H  0.41683853  0.49867525  0.95043592     0.82300
H504        H  0.46468159  0.42166894  0.91994160     0.79900
H505        H  0.09491739  0.11948187  0.97517801     0.42900
H506        H  0.03893868  0.11245585  0.49710592     0.41900
H507        H  0.41755912  0.52289717  0.54316154     0.41600
H508        H  0.39202551  0.45813211  0.00874086     0.39500
H509        H  0.35410321  0.37346660  0.93873144     0.42600
H510        H  0.44442233  0.40746451  0.84589419     0.37400
H511        H  0.07498639  0.00142220  0.82498053     0.43500
H512        H  0.12911214  0.10004872  0.87443706     0.39900
H513        H  0.36304612  0.43876638  0.98045212     0.44900
H514        H  0.47316654  0.40277791  0.84447109     0.43600
H515        H  0.10627513  0.06034591  0.86045588     0.43700
H516        H  0.51118146  0.09865525  0.53857231     0.44100
O517        O  0.06074722  0.47861437  0.62709130    -0.74800
O518        O  0.04021085  0.45780013  0.68676559    -0.53700
C519        C  0.05766971  0.46148720  0.65422013     0.78900
O520        O  0.06083677  0.12152534  0.67927345    -0.59400
O521        O  0.52054088  0.10046446  0.63631316    -0.52400
C522        C  0.04756332  0.12568119  0.65441552     0.70900
O523        O  0.09012749  0.06662967  0.73329533    -0.74000
O524        O  0.06101012  0.00985352  0.74872629    -0.54500
C525        C  0.08867197  0.04276802  0.74698091     0.76900
O526        O  0.04645541  0.54819037  0.57160767    -0.59100
O527        O  0.50689587  0.05314488  0.57517114    -0.52200
C528        C  0.51893099  0.03722759  0.56104589     0.73500
Zr529      Zr  0.04097702  0.51221383  0.61710019     2.54700
O530        O  0.10847927  0.05852036  0.61480545    -0.79700
O531        O  0.54698227  0.48336435  0.55757532    -0.93100
Zr532      Zr  0.05160643  0.07316002  0.70832280     2.64700
O533        O  0.11254049  0.12730268  0.69748058    -0.98000
O534        O  0.05106222  0.10047220  0.77067578    -0.80100
O535        O  0.05514680  0.02781035  0.68268645    -0.83500
O536        O  0.04095304  0.05734779  0.64424917    -2.18200
O537        O  0.39843763  0.44582646  0.61646212    -0.66800
O538        O  0.42441786  0.50363660  0.61167010    -0.51400
C539        C  0.39849783  0.47033807  0.60743118     0.71900
O540        O  0.43414877  0.94989815  0.75877443    -0.59800
O541        O  0.96740658  0.44266821  0.76859121    -0.51700
C542        C  0.45052520  0.45467616  0.78448845     0.73700
O543        O  0.42082285  0.02608373  0.72541228    -0.71100
O544        O  0.45027125  0.05787755  0.67170117    -0.49800
C545        C  0.42789056  0.04793913  0.70169477     0.75100
O546        O  0.42330493  0.39324853  0.68127507    -0.66500
O547        O  0.46688193  0.41173256  0.71676636    -0.53700
C548        C  0.43747756  0.38729654  0.70277587     0.73500
Zr549      Zr  0.43403305  0.44234690  0.65236951     2.77500
O550        O  0.37283113  0.40151229  0.68181849    -0.97200
O551        O  0.42489803  0.40564217  0.59477904    -0.78000
Zr552      Zr  0.45115430  0.00455825  0.73880886     2.70100
O553        O  0.39627488  0.48313321  0.78659713    -0.79300
O554        O  0.97014970  0.04789874  0.79348615    -0.98400
Zr555      Zr  0.00574750  0.47584918  0.71355246     2.21500
Zr556      Zr  0.48153503  0.03704511  0.63951371     2.11100
O557        O  0.43297244  0.48918092  0.67914856    -2.47100
O558        O  0.44930311  0.46088180  0.71426066    -0.79100
O559        O  0.48251039  0.49319428  0.62538405    -0.71300
O560        O  0.00692507  0.02291198  0.74426416    -2.34000
O561        O  0.49112444  0.45789979  0.65098818    -2.28400
O562        O  0.99438548  0.05534554  0.70570400    -0.73000
H563        H  0.05901051  0.07892625  0.63083620     0.79000
H564        H  0.01441413  0.03082048  0.76982024     0.80000
H565        H  0.41005186  0.48294590  0.67910047     0.82300
H566        H  0.48998096  0.43784692  0.64185188     0.79900
H567        H  0.05940616  0.09320071  0.78742077     0.42900
H568        H  0.98061439  0.07026013  0.78164037     0.41900
H569        H  0.37677601  0.46332654  0.77198351     0.41600
H570        H  0.37464990  0.40161735  0.70918227     0.39500
H571        H  0.43530071  0.39451520  0.59848815     0.42600
H572        H  0.53468949  0.45843199  0.56283903     0.37400
H573        H  0.11822375  0.04617095  0.61543374     0.43500
H574        H  0.12035844  0.13657578  0.72327340     0.39900
H575        H  0.36260761  0.41345619  0.68161716     0.44900
H576        H  0.57251735  0.49481258  0.55436854     0.43600
H577        H  0.12631914  0.11946514  0.68563080     0.43700
H578        H  0.45492525  0.04523897  0.80630761     0.44100
C579        C  0.15666684  0.34924490  0.82303509     0.30500
C580        C  0.15389034  0.34581454  0.90199880     0.30500
C581        C  0.14717853  0.37023598  0.84969037    -0.05700
C582        C  0.12945689  0.31162047  0.84029473    -0.06500
C583        C  0.19069695  0.36188541  0.83811873    -0.06400
C584        C  0.14507541  0.36793313  0.88926069    -0.05700
C585        C  0.12769533  0.31020825  0.88029724    -0.06500
C586        C  0.18913079  0.36067686  0.87766188    -0.06400
C587        C  0.12322227  0.37555888  0.90626162    -0.31700
N588        N  0.11424950  0.38497758  0.87936869     0.14800
C589        C  0.12873446  0.38157770  0.84474241    -0.31800
H590        H  0.12551016  0.38590761  0.81741881     0.16700
C591        C  0.10685391  0.27503884  0.88866483    -0.30700
N592        N  0.09771847  0.25504330  0.85575040     0.13500
C593        C  0.11185668  0.27697943  0.82611994    -0.30700
C594        C  0.22275270  0.37746321  0.88595460    -0.31000
N595        N  0.24451873  0.38821204  0.85289128     0.14000
H596        H  0.23119718  0.38292597  0.91410445     0.16600
C597        C  0.22539291  0.37805498  0.82336240    -0.31000
H598        H  0.23646410  0.38380095  0.79380955     0.16600
H599        H  0.11216055  0.26871761  0.79636125     0.16600
H600        H  0.11264755  0.37215439  0.93606147     0.16700
H601        H  0.10112960  0.26468862  0.91639813     0.16600
C602        C  0.16328533  0.35441780  0.57274163     0.30500
C603        C  0.16677270  0.36102187  0.65175055     0.30500
C604        C  0.14016795  0.36235731  0.59823950    -0.05700
C605        C  0.15168006  0.32154952  0.59232096    -0.06500
C606        C  0.20030664  0.38377509  0.58692027    -0.06400
C607        C  0.14257327  0.36624395  0.63756225    -0.05700
C608        C  0.15542474  0.32608992  0.63141737    -0.06500
C609        C  0.20217136  0.38732715  0.62698282    -0.06400
C610        C  0.13020892  0.38420841  0.65282326    -0.31700
N611        N  0.11802509  0.38939540  0.62509843     0.14800
C612        C  0.12336101  0.37523251  0.59183007    -0.31800
H613        H  0.11660848  0.37495811  0.56441895     0.16700
C614        C  0.14220507  0.29442422  0.64439719    -0.30700
N615        N  0.12635116  0.26929725  0.61640960     0.13500
C616        C  0.13141650  0.28534831  0.58459099    -0.30700
C617        C  0.23710667  0.40429600  0.63141046    -0.31000
N618        N  0.25630332  0.41224428  0.59662548     0.14000
H619        H  0.24746275  0.40767142  0.65764063     0.16600
C620        C  0.23417108  0.39907475  0.56936383    -0.31000
H621        H  0.24160631  0.39818153  0.53903974     0.16600
H622        H  0.11840019  0.27135305  0.55917031     0.16600
H623        H  0.13239211  0.39487478  0.68184363     0.16700
H624        H  0.14159914  0.28942155  0.67336775     0.16600
C625        C  0.16339437  0.36035357  0.69694067     0.00300
C626        C  0.19060341  0.38760971  0.71909537    -0.11500
C627        C  0.18778839  0.38565101  0.75943031     0.02600
C628        C  0.15918424  0.35407471  0.77900752     0.00300
C629        C  0.13036411  0.32889438  0.75769926    -0.11500
C630        C  0.13151294  0.33268790  0.71838489     0.02500
H631        H  0.21329303  0.41171303  0.70553804     0.15400
H632        H  0.10576985  0.30690070  0.77218735     0.15400
C633        C  0.09870596  0.30830815  0.70123342     0.37100
C634        C  0.21321218  0.41774535  0.78022704     0.37000
N635        N  0.07239895  0.28890879  0.68750995    -0.43200
N636        N  0.23345051  0.44360626  0.79686428    -0.43200
C637        C  0.15669710  0.34733985  0.94621442     0.00300
C638        C  0.16504394  0.37706439  0.96948570    -0.11500
C639        C  0.17034576  0.38119481  0.00858858     0.02600
C640        C  0.16280280  0.35300469  0.52802589     0.00300
C641        C  0.16059349  0.32663543  0.00367128    -0.11500
C642        C  0.15870321  0.32425413  0.96366354     0.02500
H643        H  0.16998962  0.39876398  0.95659072     0.15400
H644        H  0.16226219  0.30858375  0.01517467     0.15400
C645        C  0.16308752  0.30039316  0.94109114     0.37100
C646        C  0.18567006  0.41496927  0.52777380     0.37000
N647        N  0.16718189  0.28143664  0.92354374    -0.43200
N648        N  0.19954527  0.44263060  0.54267568    -0.43200
C649        C  0.10323041  0.23198248  0.62329688     0.00300
C650        C  0.08366202  0.22025924  0.65952326    -0.11500
C651        C  0.06503005  0.18563731  0.67000498     0.02600
C652        C  0.06523733  0.16173177  0.64383594     0.00300
C653        C  0.08241993  0.17226382  0.60672668    -0.11500
C654        C  0.10147458  0.20719108  0.59622705     0.02500
H655        H  0.08332628  0.23840817  0.68012581     0.15400
H656        H  0.08175627  0.15338632  0.58629072     0.15400
C657        C  0.11974301  0.21688583  0.55817488     0.37100
C658        C  0.04546927  0.17509660  0.70751931     0.37000
N659        N  0.13396859  0.22427379  0.52743129    -0.43200
N660        N  0.53316345  0.16648157  0.73979413    -0.43200
C661        C  0.29330839  0.42840032  0.59063245     0.00300
C662        C  0.31829630  0.46424095  0.60043234    -0.11500
C663        C  0.35374771  0.47965279  0.60227591     0.02600
C664        C  0.36468393  0.45861158  0.59513338     0.00300
C665        C  0.33980174  0.42312926  0.58240275    -0.11500
C666        C  0.30454129  0.40814715  0.57976645     0.02500
H667        H  0.30957110  0.47986295  0.60827006     0.15400
H668        H  0.34743906  0.40650458  0.57613626     0.15400
C669        C  0.27973393  0.37147694  0.56786200     0.37100
C670        C  0.37987587  0.01670414  0.61170112     0.37000
N671        N  0.25972899  0.34216140  0.55802140    -0.43200
N672        N  0.39925090  0.04667996  0.61915251    -0.43200
C673        C  0.07433732  0.44397133  0.64744056     0.00300
C674        C  0.08980491  0.44336685  0.61062078    -0.11500
C675        C  0.10452484  0.42612604  0.60229393     0.02600
C676        C  0.10333718  0.40785471  0.63120170     0.00300
C677        C  0.08788445  0.40864816  0.66800874    -0.11500
C678        C  0.07423187  0.42673527  0.67657626     0.02500
H679        H  0.09052587  0.45655788  0.58789356     0.15400
H680        H  0.08612946  0.39474926  0.69066226     0.15400
C681        C  0.06085075  0.42714418  0.71596540     0.37100
C682        C  0.12106339  0.42898965  0.56388093     0.37000
N683        N  0.05037819  0.42743995  0.74761359    -0.43200
N684        N  0.13362430  0.43187858  0.53255982    -0.43200
C685        C  0.05973463  0.14885775  0.86041446     0.00300
C686        C  0.03686377  0.15517858  0.85313178    -0.11500
C687        C  0.04925081  0.18986849  0.84960557     0.02600
C688        C  0.08504320  0.21907726  0.85307572     0.00300
C689        C  0.10821319  0.21291656  0.85812108    -0.11500
C690        C  0.09622190  0.17862163  0.86172657     0.02500
H691        H  0.00891981  0.13320084  0.85188832     0.15400
H692        H  0.13585362  0.23538537  0.86036787     0.15400
C693        C  0.12239390  0.17547937  0.86749961     0.37100
C694        C  0.02473712  0.19526717  0.84391060     0.37000
N695        N  0.14377197  0.17358012  0.87229129    -0.43200
N696        N  0.00529296  0.19987418  0.83922798    -0.43200
C697        C  0.35228064  0.44481174  0.86333013     0.00300
C698        C  0.33717575  0.46145599  0.87372285    -0.11500
C699        C  0.30205526  0.44391680  0.86805617     0.02600
C700        C  0.28212438  0.40975603  0.85082400     0.00300
C701        C  0.29827150  0.39468522  0.83680235    -0.11500
C702        C  0.33312577  0.41175680  0.84330392     0.02500
H703        H  0.35181226  0.48688457  0.88897685     0.15400
H704        H  0.28274956  0.36847202  0.82331705     0.15400
C705        C  0.34805558  0.39420973  0.83049498     0.37100
C706        C  0.28610817  0.46027241  0.88230129     0.37000
N707        N  0.35969849  0.37984626  0.82017368    -0.43200
N708        N  0.27318746  0.47322129  0.89391551    -0.43200
C709        C  0.05747117  0.42572420  0.90395975     0.00300
C710        C  0.05495904  0.40703627  0.86925965    -0.11500
C711        C  0.07175464  0.39191201  0.86123267     0.02600
C712        C  0.09350043  0.39700626  0.88737103     0.00300
C713        C  0.09504064  0.41470846  0.92251099    -0.11500
C714        C  0.07668136  0.42807673  0.93141727     0.02500
H715        H  0.03908882  0.40349926  0.84845582     0.15400
H716        H  0.11113125  0.41861473  0.94322994     0.15400
C717        C  0.07858639  0.44412370  0.96900165     0.37100
C718        C  0.06427548  0.36974570  0.82705106     0.37000
N719        N  0.08022605  0.45647770  0.99946430    -0.43200
N720        N  0.05793963  0.35186908  0.79965571    -0.43200
C721        C  0.37821883  0.09607179  0.72132463     0.00300
C722        C  0.35743819  0.05959932  0.72565975    -0.11500
C723        C  0.37308124  0.04330331  0.72050051     0.02600
C724        C  0.40995081  0.06365042  0.70963991     0.00300
C725        C  0.43058987  0.10025480  0.70584835    -0.11500
C726        C  0.41506581  0.11655341  0.71229409     0.02500
H727        H  0.32906080  0.04401174  0.73314737     0.15400
H728        H  0.45903389  0.11625438  0.69840921     0.15400
C729        C  0.43736727  0.15444633  0.71036659     0.37100
C730        C  0.35076112  0.00574652  0.72571578     0.37000
N731        N  0.45533806  0.18489213  0.70929190    -0.43200
N732        N  0.33387476  0.48419866  0.74657136    -0.43200
C733        C  0.38638857  0.27950152  0.72919614     0.00300
C734        C  0.37037264  0.28639164  0.70731758    -0.11500
C735        C  0.38604818  0.32078815  0.69848567     0.02600
C736        C  0.41871508  0.34986700  0.71228481     0.00300
C737        C  0.43396832  0.34281011  0.73567973    -0.11500
C738        C  0.41825772  0.30806948  0.74392051     0.02500
H739        H  0.34564062  0.26441183  0.69620718     0.15400
H740        H  0.45879955  0.36437517  0.74686270     0.15400
C741        C  0.43642380  0.30228171  0.76539556     0.37100
C742        C  0.36802342  0.32462334  0.67421413     0.37000
N743        N  0.45098874  0.29754541  0.78250686    -0.43200
N744        N  0.35346675  0.32735142  0.65455227    -0.43200
C745        C  0.19343945  0.08214886  0.75907987     0.00300
C746        C  0.18223121  0.10148865  0.77539811    -0.11500
C747        C  0.14746398  0.08827500  0.77392114     0.02600
C748        C  0.12254857  0.05417808  0.75763723     0.00300
C749        C  0.13319716  0.03370279  0.74409335    -0.11500
C750        C  0.16854447  0.04777345  0.74387494     0.02500
H751        H  0.20150051  0.12812292  0.78659945     0.15400
H752        H  0.11472788  0.00788609  0.73068359     0.15400
C753        C  0.17934149  0.02741287  0.72607102     0.37100
C754        C  0.13878611  0.11125443  0.78689602     0.37000
N755        N  0.18822721  0.01133216  0.71153580    -0.43200
N756        N  0.13178849  0.12968510  0.79692473    -0.43200
C757        C  0.38709597  0.10744403  0.96223749     0.00300
C758        C  0.40866597  0.11400747  0.98910234    -0.11500
C759        C  0.42575859  0.09935366  0.98446356     0.02600
C760        C  0.42211074  0.07781710  0.95165201     0.00300
C761        C  0.40064047  0.07131963  0.92456482    -0.11500
C762        C  0.38285771  0.08542687  0.92972606     0.02500
H763        H  0.41252509  0.13111676  0.01392879     0.15400
H764        H  0.39693312  0.05433689  0.89962585     0.15400
C765        C  0.35927067  0.07530302  0.90206600     0.37100
C766        C  0.44730315  0.10775846  0.01382332     0.37000
N767        N  0.34050111  0.06696157  0.87959532    -0.43200
N768        N  0.98220762  0.13005952  0.02451129    -0.43200
C769        C  0.41989650  0.35998536  0.00063637     0.00300
C770        C  0.44226008  0.35088544  0.99458333    -0.11500
C771        C  0.42848220  0.31585511  0.99697139     0.02600
C772        C  0.39195780  0.28932109  0.00645074     0.00300
C773        C  0.36906468  0.29732950  0.51786377    -0.11500
C774        C  0.38281402  0.33236987  0.51510163     0.02500
H775        H  0.47025658  0.37068468  0.98542658     0.15400
H776        H  0.34090642  0.27692121  0.52553990     0.15400
C777        C  0.35880789  0.34031341  0.52431994     0.37100
C778        C  0.45188489  0.30720665  0.98776142     0.37000
N779        N  0.33930591  0.34635043  0.53177540    -0.43200
N780        N  0.47064438  0.30024560  0.98034589    -0.43200
C781        C  0.13252177  0.05649371  0.98098068     0.00300
C782        C  0.14714726  0.04105925  0.96156885    -0.11500
C783        C  0.18072508  0.05390197  0.96786900     0.02600
C784        C  0.20007830  0.08280400  0.99351931     0.00300
C785        C  0.18671807  0.09629928  0.51275486    -0.11500
C786        C  0.15341917  0.08473421  0.50695371     0.02500
H787        H  0.13301313  0.02007958  0.94022405     0.15400
H788        H  0.20291015  0.11910950  0.53148958     0.15400
C789        C  0.14026816  0.10227997  0.52760078     0.37100
C790        C  0.19569832  0.03822737  0.94676157     0.37000
N791        N  0.12958434  0.11620836  0.54415103    -0.43200
N792        N  0.20791444  0.02580729  0.93002808    -0.43200
C793        C  0.32911800  0.16332711  0.90467510     0.00300
C794        C  0.32081109  0.13344481  0.88194825    -0.11500
C795        C  0.31659720  0.12937830  0.84255895     0.02600
C796        C  0.32430333  0.15719158  0.82252647     0.00300
C797        C  0.32639055  0.18384228  0.84629913    -0.11500
C798        C  0.32676721  0.18587531  0.88660943     0.02500
H799        H  0.31489907  0.11157314  0.89564556     0.15400
H800        H  0.32428806  0.20130083  0.83408584     0.15400
C801        C  0.31831064  0.20691194  0.90862290     0.37100
C802        C  0.29996954  0.09457613  0.82505191     0.37000
N803        N  0.31066288  0.22328453  0.92580978    -0.43200
N804        N  0.28625776  0.06648697  0.81137492    -0.43200
C805        C  0.32492651  0.15581739  0.57231514     0.00300
C806        C  0.35288751  0.16176365  0.58795941    -0.11500
C807        C  0.35255091  0.16031984  0.62764884     0.02600
C808        C  0.32246454  0.15016491  0.65398425     0.00300
C809        C  0.29744311  0.14996258  0.63910487    -0.11500
C810        C  0.29920627  0.15406510  0.59970077     0.02500
H811        H  0.37677596  0.17048231  0.56955976     0.15400
H812        H  0.27796822  0.14971576  0.65869311     0.15400
C813        C  0.27717550  0.16107581  0.58937421     0.37100
C814        C  0.38555941  0.17406671  0.64055166     0.37000
N815        N  0.25975261  0.16716464  0.58146114    -0.43200
N816        N  0.41238641  0.18572493  0.65051006    -0.43200
C817        C  0.32346541  0.65740078  0.02970210     0.30500
C818        C  0.32878721  0.66298545  0.45065431     0.30500
C819        C  0.34283013  0.64550535  0.00295580    -0.05700
C820        C  0.28823537  0.63504155  0.01171012    -0.06500
C821        C  0.34244136  0.69434043  0.01494602    -0.06400
C822        C  0.34651026  0.64929870  0.46329083    -0.05700
C823        C  0.29180466  0.63869185  0.47227830    -0.06500
C824        C  0.34641148  0.69773185  0.47508886    -0.06400
C825        C  0.36429351  0.63735481  0.44518595    -0.31700
N826        N  0.37079923  0.62534839  0.47182013     0.14800
C827        C  0.35738408  0.62988294  0.00714169    -0.31800
H828        H  0.35820452  0.62193032  0.03358082     0.16700
C829        C  0.25828096  0.61696879  0.46173260    -0.30700
N830        N  0.23438532  0.60087808  0.99314873     0.13500
C831        C  0.25253552  0.61092438  0.02358547    -0.30700
C832        C  0.36759560  0.73321596  0.46841610    -0.31000
N833        N  0.37300340  0.75061193  0.00290517     0.14000
H834        H  0.37675296  0.74519975  0.44095645     0.16600
C835        C  0.35897543  0.72777172  0.03130708    -0.31000
H836        H  0.36075077  0.73500302  0.06145261     0.16600
H837        H  0.24029836  0.60157776  0.05212459     0.16600
H838        H  0.37226218  0.63771771  0.41486080     0.16700
H839        H  0.25093194  0.61432945  0.43364030     0.16600
C840        C  0.32279644  0.65673256  0.27997111     0.30500
C841        C  0.32100999  0.65199788  0.20067505     0.30500
C842        C  0.34144952  0.64348866  0.25496010    -0.05700
C843        C  0.28582324  0.63246993  0.26549855    -0.06500
C844        C  0.34070045  0.69163877  0.25999346    -0.06400
C845        C  0.33952729  0.63992530  0.21531316    -0.05700
C846        C  0.28478597  0.62969292  0.22570901    -0.06500
C847        C  0.33926233  0.68862763  0.22031352    -0.06400
C848        C  0.35443198  0.62430922  0.19975541    -0.31700
N849        N  0.36707498  0.62057799  0.22797594     0.14800
C850        C  0.35990160  0.63257793  0.26148876    -0.31800
H851        H  0.36702846  0.63251265  0.28861611     0.16700
C852        C  0.24942724  0.60796709  0.21995057    -0.30700
N853        N  0.22943842  0.59886493  0.25438999     0.13500
C854        C  0.25131072  0.61385169  0.28236962    -0.30700
C855        C  0.35653106  0.72165036  0.20751287    -0.31000
N856        N  0.36893101  0.74488610  0.23760473     0.14000
H857        H  0.36007253  0.72846386  0.17838362     0.16600
C858        C  0.36005599  0.72736932  0.26964332    -0.31000
H859        H  0.36781025  0.74009281  0.29741273     0.16600
H860        H  0.24283005  0.61245610  0.31269280     0.16600
H861        H  0.35551956  0.61563997  0.17029219     0.16700
H862        H  0.23871751  0.60035304  0.19285832     0.16600
O863        O  0.03604403  0.95022609  0.38006552    -0.74800
O864        O  0.03556486  0.95131172  0.44407495    -0.53700
C865        C  0.04294552  0.94408722  0.40972268     0.78900
O866        O  0.06364433  0.61193033  0.39026595    -0.59400
O867        O  0.51225540  0.58630775  0.36233755    -0.52400
C868        C  0.04513717  0.61402883  0.37097732     0.70900
O869        O  0.10009811  0.56646179  0.45108018    -0.74000
O870        O  0.06980670  0.51467627  0.48153157    -0.54500
C871        C  0.09804051  0.54524980  0.47127951     0.76900
O872        O  0.00056474  0.99706356  0.31802468    -0.59100
O873        O  0.45367141  0.49595946  0.32758437    -0.52200
C874        C  0.46803283  0.48277018  0.31124254     0.73500
Zr875      Zr  0.00840639  0.97426737  0.36557637     2.54700
O876        O  0.04910251  0.48104401  0.31213314    -0.79700
O877        O  0.46907739  0.91519029  0.33443938    -0.93100
Zr878      Zr  0.06112459  0.56725311  0.41801553     2.64700
O879        O  0.10578499  0.58169210  0.36450508    -0.98000
O880        O  0.10524032  0.62425165  0.44818693    -0.80100
O881        O  0.04502778  0.50988282  0.41269266    -0.83500
O882        O  0.02502488  0.53301300  0.36875215    -2.18200
O883        O  0.38606134  0.93673257  0.39619882    -0.66800
O884        O  0.41184878  0.99041032  0.37294946    -0.51400
C885        C  0.38605176  0.95727274  0.37734182     0.71900
O886        O  0.46732585  0.49663926  0.03397703    -0.59800
O887        O  0.00463165  0.98364366  0.03635353    -0.51700
C888        C  0.49608312  0.00332254  0.04439517     0.73700
O889        O  0.44643637  0.55752288  0.47812471    -0.71100
O890        O  0.44807764  0.55740647  0.41382788    -0.49800
C891        C  0.44091632  0.56473379  0.44825721     0.75100
O892        O  0.41610227  0.89707290  0.47343096    -0.66500
O893        O  0.46945924  0.91996179  0.49132312    -0.53700
C894        C  0.43632861  0.89462457  0.48870854     0.73500
Zr895      Zr  0.42187074  0.94077929  0.43935435     2.77500
O896        O  0.37797119  0.93268487  0.49070068    -0.97200
O897        O  0.37687839  0.88070804  0.41616453    -0.78000
Zr898      Zr  0.47531400  0.53522047  0.49319170     2.70100
O899        O  0.44393749  0.03806091  0.04569513    -0.79300
O900        O  0.02151382  0.59092191  0.01835948    -0.98400
Zr901      Zr  0.01158438  0.98114234  0.46946498     2.21500
Zr902      Zr  0.47079963  0.52663954  0.38789942     2.11100
O903        O  0.43842958  0.99862273  0.44475723    -2.47100
O904        O  0.45939234  0.97674096  0.48645808    -0.79100
O905        O  0.45641168  0.96881757  0.38264123    -0.71300
O906        O  0.02848058  0.53955373  0.47598021    -2.32200
O907        O  0.47237409  0.94314636  0.42117823    -2.28400
O908        O  0.01024555  0.56400939  0.43399288    -0.73000
H909        H  0.03956960  0.54767379  0.34693532     0.79000
H910        H  0.04215056  0.55153932  0.99628930     0.80000
H911        H  0.41723054  0.99639939  0.44958258     0.82300
H912        H  0.46609081  0.91999613  0.41877266     0.79900
H913        H  0.09332921  0.63466635  0.45659788     0.42900
H914        H  0.03210984  0.60709468  0.99699601     0.41900
H915        H  0.41898056  0.02010511  0.04021385     0.41600
H916        H  0.35605258  0.90838362  0.48623765     0.39500
H917        H  0.39022379  0.87541415  0.39707782     0.42600
H918        H  0.44485391  0.90532750  0.34615580     0.37400
H919        H  0.07272891  0.50049240  0.32057818     0.43500
H920        H  0.12866346  0.60055393  0.37482125     0.39900
H921        H  0.38559431  0.93129636  0.51392732     0.44900
H922        H  0.47392226  0.90101826  0.34449780     0.43600
H923        H  0.10496677  0.56087067  0.36067682     0.43700
H924        H  0.51461088  0.60325745  0.03576588     0.44100
O925        O  0.06236860  0.97672917  0.12797717    -0.74800
O926        O  0.04153424  0.95594855  0.18770352    -0.53700
C927        C  0.05897532  0.95951141  0.15518585     0.78900
O928        O  0.05953715  0.62184522  0.17767297    -0.59400
O929        O  0.52045591  0.60270574  0.13754876    -0.52400
C930        C  0.04564986  0.62580865  0.15348146     0.70900
O931        O  0.08938721  0.56770920  0.23220261    -0.74000
O932        O  0.06080930  0.51048948  0.24535721    -0.54500
C933        C  0.08810786  0.54361999  0.24496679     0.76900
O934        O  0.04817965  0.04599604  0.07078931    -0.59100
O935        O  0.50777192  0.55659479  0.07817548    -0.52200
C936        C  0.51877013  0.53979614  0.06362320     0.73500
Zr937      Zr  0.04233952  0.00937853  0.11602678     2.54700
O938        O  0.10339191  0.55641986  0.11537607    -0.79700
O939        O  0.55186104  0.98431303  0.05623600    -0.93100
Zr940      Zr  0.05123957  0.57370879  0.20546841     2.64700
O941        O  0.11283838  0.62489608  0.18906987    -0.98000
O942        O  0.05397569  0.60431354  0.26648707    -0.80100
O943        O  0.05308602  0.52717614  0.18023323    -0.83500
O944        O  0.03845180  0.55737693  0.14179362    -2.18200
O945        O  0.40029642  0.94568647  0.11849272    -0.66800
O946        O  0.42738075  0.00324379  0.10975256    -0.51400
C947        C  0.40085940  0.96998607  0.10756159     0.71900
O948        O  0.43062608  0.45217179  0.26393797    -0.59800
O949        O  0.97100184  0.94453534  0.27068735    -0.51700
C950        C  0.45325479  0.95467668  0.28331374     0.73700
O951        O  0.42024152  0.52938758  0.22834145    -0.71100
O952        O  0.45075497  0.56129428  0.17487542    -0.49800
C953        C  0.42835928  0.55181877  0.20479297     0.75100
O954        O  0.42482119  0.89325655  0.18415641    -0.66500
O955        O  0.47114446  0.91252112  0.21575084    -0.53700
C956        C  0.44037218  0.88819154  0.20468504     0.73500
Zr957      Zr  0.43758540  0.94128472  0.15028731     2.77500
O958        O  0.37607494  0.88832094  0.16160226    -0.97200
O959        O  0.44266090  0.91511636  0.08903134    -0.78000
Zr960      Zr  0.44961918  0.50722325  0.24220031     2.70100
O961        O  0.39871334  0.98288016  0.28447418    -0.79300
O962        O  0.97442492  0.55167387  0.29382650    -0.98400
Zr963      Zr  0.00822762  0.97536192  0.21404080     2.21500
Zr964      Zr  0.48119565  0.53979593  0.14230917     2.11100
O965        O  0.43616024  0.98807445  0.17720254    -2.47100
O966        O  0.45244805  0.96047968  0.21240245    -0.79100
O967        O  0.48417007  0.99078932  0.11591231    -0.71300
O968        O  0.00739416  0.52427053  0.24288506    -2.34000
O969        O  0.49522132  0.95850363  0.14984787    -2.28400
O970        O  0.99406655  0.55686892  0.20538246    -0.73000
H971        H  0.05609301  0.57836860  0.12735657     0.79000
H972        H  0.01579914  0.53226736  0.26794706     0.80000
H973        H  0.41314255  0.98178820  0.17765740     0.82300
H974        H  0.49428415  0.93849949  0.14100182     0.79900
H975        H  0.05984547  0.59534512  0.28430749     0.42900
H976        H  0.98544762  0.57403153  0.28158479     0.41900
H977        H  0.37899500  0.96779102  0.26829028     0.41600
H978        H  0.36301938  0.89704637  0.17303665     0.39500
H979        H  0.42302999  0.90865777  0.07578915     0.42600
H980        H  0.53675214  0.95869027  0.06050351     0.37400
H981        H  0.11184836  0.56092555  0.08789992     0.43500
H982        H  0.12298621  0.63483622  0.21375313     0.39900
H983        H  0.36807439  0.87879291  0.13588607     0.44900
H984        H  0.57648368  0.99309350  0.05487977     0.43600
H985        H  0.12435243  0.61495850  0.17597294     0.43700
H986        H  0.45346113  0.54667504  0.31111947     0.44100
C987        C  0.15904986  0.85031170  0.32165270     0.30500
C988        C  0.15566815  0.84683583  0.40065145     0.30500
C989        C  0.15141082  0.87295765  0.34796460    -0.05700
C990        C  0.13037619  0.81296507  0.33913552    -0.06500
C991        C  0.19219728  0.86098432  0.33674091    -0.06400
C992        C  0.14887137  0.87051109  0.38760985    -0.05700
C993        C  0.12826101  0.81155122  0.37924393    -0.06500
C994        C  0.19051660  0.85992317  0.37632004    -0.06400
C995        C  0.12749211  0.87884381  0.40422682    -0.31700
N996        N  0.11954995  0.88916076  0.37723651     0.14800
C997        C  0.13395321  0.88537111  0.34276289    -0.31800
H998        H  0.13118311  0.88996725  0.31533141     0.16700
C999        C  0.10762308  0.77641004  0.38761683    -0.30700
N1000       N  0.09898708  0.75648779  0.35469389     0.13500
C1001       C  0.11348307  0.77840905  0.32503306    -0.30700
C1002       C  0.22387920  0.87531697  0.38442057    -0.31000
N1003       N  0.24534467  0.88478273  0.35115401     0.14000
H1004       H  0.23245335  0.88092064  0.41252071     0.16600
C1005       C  0.22638324  0.87539830  0.32176780    -0.31000
H1006       H  0.23737225  0.88067319  0.29215186     0.16600
H1007       H  0.11461881  0.77025737  0.29535921     0.16600
H1008       H  0.11619425  0.87502828  0.43379139     0.16700
H1009       H  0.10196970  0.76610526  0.41535794     0.16600
C1010       C  0.16609631  0.85463387  0.07104341     0.30500
C1011       C  0.17006750  0.86133927  0.15000758     0.30500
C1012       C  0.14268439  0.86197106  0.09693506    -0.05700
C1013       C  0.15517157  0.82199087  0.09046440    -0.06500
C1014       C  0.20321576  0.88442286  0.08506241    -0.06400
C1015       C  0.14545959  0.86604929  0.13610016    -0.05700
C1016       C  0.15910090  0.82656813  0.12960547    -0.06500
C1017       C  0.20522083  0.88795548  0.12516005    -0.06400
C1018       C  0.13178849  0.88265062  0.15190438    -0.31700
N1019       N  0.11851691  0.88687084  0.12455448     0.14800
C1020       C  0.12426033  0.87317785  0.09109594    -0.31800
H1021       H  0.11663689  0.87197133  0.06390208     0.16700
C1022       C  0.14480642  0.79466206  0.14292528    -0.30700
N1023       N  0.12828758  0.76958944  0.11514055     0.13500
C1024       C  0.13369521  0.78567382  0.08321837    -0.30700
C1025       C  0.24011020  0.90478455  0.12951055    -0.31000
N1026       N  0.25929235  0.91283732  0.09478499     0.14000
H1027       H  0.25045144  0.90781543  0.15560407     0.16600
C1028       C  0.23713287  0.89966811  0.06751312    -0.31000
H1029       H  0.24453364  0.89860767  0.03721151     0.16600
H1030       H  0.12007760  0.77165538  0.05811896     0.16600
H1031       H  0.13387374  0.89313895  0.18099080     0.16700
H1032       H  0.14358405  0.78944728  0.17203187     0.16600
C1033       C  0.16674722  0.86079793  0.19519779     0.00300
C1034       C  0.19419596  0.88780866  0.21725013    -0.11500
C1035       C  0.19135276  0.88602529  0.25760650     0.02600
C1036       C  0.16202045  0.85499230  0.27750326     0.00300
C1037       C  0.13318278  0.83001714  0.25617874    -0.11500
C1038       C  0.13464267  0.83353167  0.21672843     0.02500
H1039       H  0.21721327  0.91164524  0.20360919     0.15400
H1040       H  0.10831229  0.80842775  0.27073435     0.15400
C1041       C  0.10178173  0.80950376  0.19964554     0.37100
C1042       C  0.21796968  0.91774117  0.27794571     0.37000
N1043       N  0.07535216  0.79046968  0.18611260    -0.43200
N1044       N  0.23937806  0.94333596  0.29402975    -0.43200
C1045       C  0.15791650  0.84792193  0.44495410     0.00300
C1046       C  0.16507984  0.87692652  0.46884074    -0.11500
C1047       C  0.16931087  0.88030826  0.50816812     0.02600
C1048       C  0.16498700  0.85300766  0.02632120     0.00300
C1049       C  0.16119200  0.82653946  0.50224743    -0.11500
C1050       C  0.15966494  0.82457938  0.46221279     0.02500
H1051       H  0.17006395  0.89881080  0.45640810     0.15400
H1052       H  0.16314904  0.80856638  0.51336158     0.15400
C1053       C  0.16404267  0.80078491  0.43939167     0.37100
C1054       C  0.18524851  0.91412405  0.02656081     0.37000
N1055       N  0.16808509  0.78189557  0.42153992    -0.43200
N1056       N  0.19734611  0.94137981  0.04182299    -0.43200
C1057       C  0.10413653  0.73235089  0.12215212     0.00300
C1058       C  0.08334782  0.72083897  0.15780103    -0.11500
C1059       C  0.06345409  0.68597807  0.16830111     0.02600
C1060       C  0.06354884  0.66175818  0.14257696     0.00300
C1061       C  0.08236025  0.67233227  0.10613728    -0.11500
C1062       C  0.10289624  0.70749270  0.09582346     0.02500
H1063       H  0.08331557  0.73936808  0.17800020     0.15400
H1064       H  0.08217487  0.65338963  0.08633102     0.15400
C1065       C  0.12413944  0.71769787  0.05927646     0.37100
C1066       C  0.04326489  0.67564178  0.20554210     0.37000
N1067       N  0.14110621  0.72565748  0.02989720    -0.43200
N1068       N  0.52967009  0.66956335  0.23454229    -0.43200
C1069       C  0.29618375  0.92859683  0.08906993     0.00300
C1070       C  0.32149308  0.96464575  0.09793930    -0.11500
C1071       C  0.35671394  0.97974340  0.10080501     0.02600
C1072       C  0.36709227  0.95823335  0.09528940     0.00300
C1073       C  0.34188310  0.92247128  0.08385795    -0.11500
C1074       C  0.30683380  0.90769341  0.08064281     0.02500
H1075       H  0.31313609  0.98065895  0.10447889     0.15400
H1076       H  0.34906576  0.90545066  0.07924196     0.15400
C1077       C  0.28154495  0.87044795  0.07137838     0.37100
C1078       C  0.37824028  0.51831319  0.11742709     0.37000
N1079       N  0.26132089  0.84055538  0.06391843    -0.43200
N1080       N  0.39652579  0.54803592  0.12627918    -0.43200
C1081       C  0.07516995  0.94163292  0.14820163     0.00300
C1082       C  0.08909788  0.93985355  0.11092833    -0.11500
C1083       C  0.10312444  0.92205228  0.10203316     0.02600
C1084       C  0.10332675  0.90484487  0.13102917     0.00300
C1085       C  0.08913999  0.90659250  0.16832157    -0.11500
C1086       C  0.07572826  0.92488719  0.17727769     0.02500
H1087       H  0.08885388  0.95230378  0.08814790     0.15400
H1088       H  0.08811891  0.89324774  0.19103178     0.15400
C1089       C  0.06310585  0.92588606  0.21685717     0.37100
C1090       C  0.11685082  0.92271752  0.06270453     0.37000
N1091       N  0.05312775  0.92657374  0.24862215    -0.43200
N1092       N  0.12690230  0.92361416  0.03064712    -0.43200
C1093       C  0.06041921  0.65039170  0.36036381     0.00300
C1094       C  0.03741450  0.65688410  0.35435717    -0.11500
C1095       C  0.04994266  0.69152520  0.35064131     0.02600
C1096       C  0.08609784  0.72049683  0.35220163     0.00300
C1097       C  0.10939628  0.71414125  0.35597275    -0.11500
C1098       C  0.09715535  0.67983264  0.36017864     0.02500
H1099       H  0.00925162  0.63511495  0.35453319     0.15400
H1100       H  0.13726608  0.73646366  0.35703537     0.15400
C1101       C  0.12321787  0.67631447  0.36527829     0.37100
C1102       C  0.02513485  0.69711207  0.34708539     0.37000
N1103       N  0.14444247  0.67404566  0.36961985    -0.43200
N1104       N  0.00528879  0.70169748  0.34426546    -0.43200
C1105       C  0.35307625  0.94138997  0.36122191     0.00300
C1106       C  0.33892371  0.95909790  0.36749032    -0.11500
C1107       C  0.30380925  0.94132944  0.36156487     0.02600
C1108       C  0.28286235  0.90570472  0.34869445     0.00300
C1109       C  0.29802827  0.88924926  0.33841289    -0.11500
C1110       C  0.33303838  0.90680109  0.34460615     0.02500
H1111       H  0.35431746  0.98580844  0.37975002     0.15400
H1112       H  0.28176877  0.86197167  0.32789124     0.15400
C1113       C  0.34733139  0.88836207  0.33494056     0.37100
C1114       C  0.28897238  0.95923810  0.37097256     0.37000
N1115       N  0.35867100  0.87348575  0.32717625    -0.43200
N1116       N  0.27703802  0.97356469  0.37852969    -0.43200
C1117       C  0.06103679  0.92813770  0.40318854     0.00300
C1118       C  0.05883431  0.90982376  0.36826611    -0.11500
C1119       C  0.07687649  0.89601503  0.35937917     0.02600
C1120       C  0.09897953  0.90141450  0.38522632     0.00300
C1121       C  0.10057746  0.91909746  0.42043071    -0.11500
C1122       C  0.08154226  0.93173296  0.42991072     0.02500
H1123       H  0.04249765  0.90582136  0.34775692     0.15400
H1124       H  0.11728027  0.92356392  0.44072883     0.15400
C1125       C  0.08447016  0.94871818  0.46712373     0.37100
C1126       C  0.07073665  0.87528970  0.32425266     0.37000
N1127       N  0.08718431  0.96204814  0.49719843    -0.43200
N1128       N  0.06567564  0.85875369  0.29596166    -0.43200
C1129       C  0.38272599  0.60377637  0.22374333     0.00300
C1130       C  0.36184090  0.56836587  0.23336101    -0.11500
C1131       C  0.37611520  0.55081198  0.22825782     0.02600
C1132       C  0.41186217  0.56894644  0.21281871     0.00300
C1133       C  0.43283365  0.60477004  0.20427980    -0.11500
C1134       C  0.41861476  0.62227652  0.20998023     0.02500
H1135       H  0.33424148  0.55442584  0.24438506     0.15400
H1136       H  0.46055013  0.61924979  0.19336847     0.15400
C1137       C  0.44148161  0.65942183  0.20249288     0.37100
C1138       C  0.35317802  0.51404361  0.23768856     0.37000
N1139       N  0.46025856  0.68931719  0.19679904    -0.43200
N1140       N  0.33684379  0.98183930  0.23630217    -0.43200
C1141       C  0.38748213  0.78185105  0.23497461     0.00300
C1142       C  0.36801321  0.79377202  0.23667836    -0.11500
C1143       C  0.38476779  0.82856028  0.22787467     0.02600
C1144       C  0.42168214  0.85182376  0.21651963     0.00300
C1145       C  0.44129982  0.84011921  0.21664233    -0.11500
C1146       C  0.42439918  0.80532607  0.22559520     0.02500
H1147       H  0.33953259  0.77549722  0.24404568     0.15400
H1148       H  0.46969172  0.85780029  0.20848868     0.15400
C1149       C  0.44500938  0.79362499  0.22365558     0.37100
C1150       C  0.36361555  0.83985960  0.23183998     0.37000
N1151       N  0.46146724  0.78415154  0.22213545    -0.43200
N1152       N  0.34651721  0.84877534  0.23543271    -0.43200
C1153       C  0.19223909  0.58209891  0.25955020     0.00300
C1154       C  0.18151365  0.60216828  0.27439597    -0.11500
C1155       C  0.14689623  0.58926370  0.27234919     0.02600
C1156       C  0.12182119  0.55503535  0.25635977     0.00300
C1157       C  0.13195257  0.53391806  0.24446169    -0.11500
C1158       C  0.16698283  0.54743032  0.24531539     0.02500
H1159       H  0.20097720  0.62893595  0.28514207     0.15400
H1160       H  0.11329459  0.50782359  0.23169590     0.15400
C1161       C  0.17699768  0.52593649  0.22992227     0.37100
C1162       C  0.13841893  0.61246744  0.28484352     0.37000
N1163       N  0.18505253  0.50871679  0.21748069    -0.43200
N1164       N  0.13150150  0.63101198  0.29443144    -0.43200
C1165       C  0.38888846  0.61065032  0.46479443     0.00300
C1166       C  0.41283957  0.61984466  0.49001772    -0.11500
C1167       C  0.43047716  0.60573314  0.48501093     0.02600
C1168       C  0.42428816  0.58176083  0.45401919     0.00300
C1169       C  0.40080683  0.57299370  0.42840617    -0.11500
C1170       C  0.38289280  0.58684716  0.43365465     0.02500
H1171       H  0.41803994  0.63848533  0.51362542     0.15400
H1172       H  0.39553809  0.55431946  0.40477959     0.15400
C1173       C  0.35723020  0.57452216  0.40774466     0.37100
C1174       C  0.45555167  0.61733560  0.51147932     0.37000
N1175       N  0.33680099  0.56434869  0.38663195    -0.43200
N1176       N  0.97916845  0.63005241  0.52885198    -0.43200
C1177       C  0.42129404  0.85924434  0.50048829     0.00300
C1178       C  0.44284463  0.84921009  0.49291741    -0.11500
C1179       C  0.42832848  0.81400425  0.49546617     0.02600
C1180       C  0.39194399  0.78836377  0.50667682     0.00300
C1181       C  0.36918973  0.79816973  0.01708309    -0.11500
C1182       C  0.38416315  0.83355821  0.01439281     0.02500
H1183       H  0.47064021  0.86838000  0.48248818     0.15400
H1184       H  0.34095794  0.77846528  0.02509446     0.15400
C1185       C  0.36155606  0.84314924  0.02476787     0.37100
C1186       C  0.45080548  0.80431872  0.48489000     0.37000
N1187       N  0.34341182  0.85078550  0.03326706    -0.43200
N1188       N  0.46892388  0.79664790  0.47641172    -0.43200
C1189       C  0.13097860  0.55631360  0.48225767     0.00300
C1190       C  0.14434881  0.53933706  0.46411476    -0.11500
C1191       C  0.17787593  0.55182545  0.47003764     0.02600
C1192       C  0.19817471  0.58159077  0.49437234     0.00300
C1193       C  0.18364828  0.59908369  0.01290779    -0.11500
C1194       C  0.14990767  0.58623695  0.00714366     0.02500
H1195       H  0.12936889  0.51752224  0.44384449     0.15400
H1196       H  0.20029338  0.62340033  0.02957018     0.15400
C1197       C  0.13726325  0.60517299  0.02434275     0.37100
C1198       C  0.19178160  0.53487569  0.44978800     0.37000
N1199       N  0.12689452  0.62014586  0.03802231    -0.43200
N1200       N  0.20300258  0.52132486  0.43363276    -0.43200
C1201       C  0.32747665  0.66254984  0.40644834     0.00300
C1202       C  0.32029615  0.63339802  0.38306859    -0.11500
C1203       C  0.31604347  0.62974903  0.34374419     0.02600
C1204       C  0.32249751  0.65736654  0.32460854     0.00300
C1205       C  0.32389645  0.68332051  0.34898877    -0.11500
C1206       C  0.32434018  0.68484888  0.38913549     0.02500
H1207       H  0.31542891  0.61179942  0.39614745     0.15400
H1208       H  0.32132091  0.70066895  0.33734926     0.15400
C1209       C  0.31567420  0.70550397  0.41175639     0.37100
C1210       C  0.30129370  0.59564865  0.32515842     0.37000
N1211       N  0.30801156  0.72168753  0.42945715    -0.43200
N1212       N  0.28920835  0.56813694  0.31060221    -0.43200
C1213       C  0.32233955  0.65634141  0.07428286     0.00300
C1214       C  0.35107837  0.66344893  0.08950546    -0.11500
C1215       C  0.35178685  0.66330493  0.12927108     0.02600
C1216       C  0.32182907  0.65277355  0.15609018     0.00300
C1217       C  0.29608746  0.65159351  0.14153523    -0.11500
C1218       C  0.29690871  0.65476963  0.10209595     0.02500
H1219       H  0.37463575  0.67189244  0.07052100     0.15400
H1220       H  0.27668623  0.65125527  0.16141787     0.15400
C1221       C  0.27435767  0.66132748  0.09234916     0.37100
C1222       C  0.38563497  0.67912763  0.14156182     0.37000
N1223       N  0.25636316  0.66698663  0.08520300    -0.43200
N1224       N  0.41316695  0.69254758  0.15092523    -0.43200
C1225       C  0.32437205  0.65806946  0.52956199     0.30500
C1226       C  0.32795835  0.66242105  0.95067254     0.30500
C1227       C  0.34385410  0.64623182  0.50285780    -0.05700
C1228       C  0.28916198  0.63554349  0.51163803    -0.06500
C1229       C  0.34337023  0.69503469  0.51478228    -0.06400
C1230       C  0.34550476  0.64855605  0.96335978    -0.05700
C1231       C  0.29094873  0.63822760  0.97227785    -0.06500
C1232       C  0.34554919  0.69712254  0.97523654    -0.06400
C1233       C  0.36326424  0.63655225  0.94535686    -0.31700
N1234       N  0.36984990  0.62473142  0.97212235     0.14800
C1235       C  0.35832622  0.63047976  0.50689758    -0.31800
H1236       H  0.35895887  0.62231797  0.53329338     0.16700
C1237       C  0.25743808  0.61710926  0.96177125    -0.30700
N1238       N  0.23528272  0.60039505  0.49305444     0.13500
C1239       C  0.25354031  0.61084856  0.52349692    -0.30700
C1240       C  0.36599083  0.73256408  0.96880280    -0.31000
N1241       N  0.37520556  0.75149268  0.50238228     0.14000
H1242       H  0.37506428  0.74467008  0.94142952     0.16600
C1243       C  0.36073365  0.72865758  0.53092832    -0.31000
H1244       H  0.36278812  0.73602146  0.56103051     0.16600
H1245       H  0.24143932  0.60138828  0.55203453     0.16600
H1246       H  0.37117602  0.63671411  0.91503238     0.16700
H1247       H  0.25015889  0.61469074  0.93370661     0.16600
C1248       C  0.32225995  0.65708448  0.77979197     0.30500
C1249       C  0.32045857  0.65240077  0.70051230     0.30500
C1250       C  0.34017412  0.64302738  0.75472711    -0.05700
C1251       C  0.28525847  0.63342870  0.76535824    -0.06500
C1252       C  0.34081918  0.69216357  0.75968720    -0.06400
C1253       C  0.33816518  0.63951081  0.71512410    -0.05700
C1254       C  0.28424454  0.63074973  0.72556297    -0.06500
C1255       C  0.33945787  0.68909517  0.71998078    -0.06400
C1256       C  0.35239441  0.62331245  0.69938076    -0.31700
N1257       N  0.36477562  0.61909919  0.72743736     0.14800
C1258       C  0.35805496  0.63138987  0.76104722    -0.31800
H1259       H  0.36527670  0.63123311  0.78806119     0.16700
C1260       C  0.24891992  0.60901769  0.71971369    -0.30700
N1261       N  0.22886820  0.59965037  0.75411544     0.13500
C1262       C  0.25069917  0.61458245  0.78215080    -0.30700
C1263       C  0.35742833  0.72209357  0.70683171    -0.31000
N1264       N  0.37004180  0.74547262  0.73673192     0.14000
H1265       H  0.36115341  0.72879280  0.67759417     0.16600
C1266       C  0.36054962  0.72801387  0.76907932    -0.31000
H1267       H  0.36808268  0.74079192  0.79687828     0.16600
H1268       H  0.24212471  0.61277735  0.81247408     0.16600
H1269       H  0.35335191  0.61472420  0.66985508     0.16700
H1270       H  0.23827368  0.60138372  0.69257625     0.16600
O1271       O  0.03493822  0.94760531  0.87845187    -0.74800
O1272       O  0.03374309  0.94814160  0.94256840    -0.53700
C1273       C  0.04134452  0.94107306  0.90817612     0.78900
O1274       O  0.06176906  0.61074160  0.89154435    -0.59400
O1275       O  0.51390773  0.58794569  0.86218709    -0.52400
C1276       C  0.04347847  0.61254941  0.87155512     0.70900
O1277       O  0.09842871  0.56505205  0.95135409    -0.74000
O1278       O  0.06797509  0.51410189  0.98357083    -0.54500
C1279       C  0.09633190  0.54435057  0.97244485     0.76900
O1280       O  0.99882149  0.99218855  0.81557935    -0.59100
O1281       O  0.45449310  0.49717308  0.82743059    -0.52200
C1282       C  0.46854475  0.48374007  0.81083296     0.73500
Zr1283     Zr  0.00691059  0.97149751  0.86515484     2.54700
O1284       O  0.05436352  0.48777105  0.81617802    -0.79700
O1285       O  0.46702613  0.91324592  0.83468671    -0.93100
Zr1286     Zr  0.05910932  0.56638432  0.92001084     2.64700
O1287       O  0.10705628  0.58667875  0.86879431    -0.98000
O1288       O  0.09633508  0.62118135  0.95723641    -0.80100
O1289       O  0.04368462  0.50927145  0.91381682    -0.83500
O1290       O  0.02401753  0.53214965  0.86986332    -2.18200
O1291       O  0.38429077  0.93384589  0.89635870    -0.66800
O1292       O  0.40975226  0.98647132  0.87050933    -0.51400
C1293       C  0.38402281  0.95350190  0.87627125     0.71900
O1294       O  0.46402562  0.49409412  0.53540396    -0.59800
O1295       O  0.00902183  0.98819814  0.53657141    -0.51700
C1296       C  0.49467452  0.00189494  0.54583553     0.73700
O1297       O  0.44821921  0.55973947  0.97785088    -0.71100
O1298       O  0.44907311  0.55892552  0.91355114    -0.49800
C1299       C  0.44210969  0.56641358  0.94801022     0.75100
O1300       O  0.41565765  0.89657596  0.97397629    -0.66500
O1301       O  0.46927778  0.91934613  0.99091451    -0.53700
C1302       C  0.43597952  0.89412583  0.98899418     0.73500
Zr1303     Zr  0.42145093  0.93954408  0.93867088     2.77500
O1304       O  0.37789914  0.93244280  0.98983093    -0.97200
O1305       O  0.37832797  0.87925653  0.91475598    -0.78000
Zr1306     Zr  0.47739498  0.53758453  0.99258760     2.70100
O1307       O  0.44398293  0.03771301  0.54770492    -0.79300
O1308       O  0.02526692  0.59378434  0.51701980    -0.98400
Zr1309     Zr  0.01013781  0.97835988  0.96891705     2.21500
Zr1310     Zr  0.47219403  0.52848744  0.88737009     2.11100
O1311       O  0.43750306  0.99701294  0.94318146    -2.47100
O1312       O  0.45909322  0.97595437  0.98558740    -0.79100
O1313       O  0.45530072  0.96704028  0.88142078    -0.71300
O1314       O  0.02596094  0.53764930  0.97733591    -2.32200
O1315       O  0.47199232  0.94220980  0.92045672    -2.28400
O1316       O  0.00771947  0.56202667  0.93545993    -0.73000
H1317       H  0.03804556  0.54618070  0.84754762     0.79000
H1318       H  0.04479489  0.55348268  0.49484966     0.80000
H1319       H  0.41605768  0.99434543  0.94810626     0.82300
H1320       H  0.46570578  0.91906370  0.91840705     0.79900
H1321       H  0.12000049  0.63472786  0.94231079     0.42900
H1322       H  0.03666999  0.60954956  0.49516093     0.41900
H1323       H  0.41914183  0.01938727  0.54197191     0.41600
H1324       H  0.35832608  0.90662343  0.99051923     0.39500
H1325       H  0.39281314  0.87356366  0.89897443     0.42600
H1326       H  0.44298298  0.90571465  0.84309760     0.37400
H1327       H  0.07531051  0.51154979  0.82397329     0.43500
H1328       H  0.12885151  0.60607032  0.88068125     0.39900
H1329       H  0.38902602  0.93835680  0.01348949     0.44900
H1330       H  0.46837669  0.89800620  0.84845363     0.43600
H1331       H  0.10844060  0.56727047  0.86413562     0.43700
H1332       H  0.51029390  0.59998644  0.53792755     0.44100
O1333       O  0.06297802  0.97792720  0.63023035    -0.74800
O1334       O  0.04272548  0.95781433  0.69024149    -0.53700
C1335       C  0.05950851  0.96069484  0.65745299     0.78900
O1336       O  0.06045746  0.62228829  0.67640720    -0.59400
O1337       O  0.51885678  0.60128049  0.63666137    -0.52400
C1338       C  0.04724542  0.62653049  0.65161980     0.70900
O1339       O  0.08824258  0.56750347  0.73301313    -0.74000
O1340       O  0.05981083  0.51015847  0.74545443    -0.54500
C1341       C  0.08703556  0.54335324  0.74544723     0.76900
O1342       O  0.05206845  0.04954314  0.57310379    -0.59100
O1343       O  0.50671215  0.55475631  0.57768952    -0.52200
C1344       C  0.51651791  0.53693014  0.56315935     0.73500
Zr1345     Zr  0.04447295  0.01198996  0.61860729     2.54700
O1346       O  0.10427430  0.56081953  0.61815074    -0.79700
O1347       O  0.55902037  0.99316044  0.55273672    -0.93100
Zr1348     Zr  0.05062988  0.57406638  0.70604353     2.64700
O1349       O  0.11248155  0.62612434  0.69307068    -0.98000
O1350       O  0.05134364  0.60367270  0.76713456    -0.80100
O1351       O  0.05319947  0.52803047  0.68058210    -0.83500
O1352       O  0.03883850  0.55841787  0.64213254    -2.18200
O1353       O  0.39942464  0.94457542  0.61593394    -0.66800
O1354       O  0.42562703  0.00232901  0.61062434    -0.51400
C1355       C  0.39932863  0.96904900  0.60708092     0.71900
O1356       O  0.43027060  0.45271810  0.76444771    -0.59800
O1357       O  0.96672813  0.93997967  0.76848910    -0.51700
C1358       C  0.45395692  0.95242578  0.78003106     0.73700
O1359       O  0.42017120  0.53000543  0.72828780    -0.71100
O1360       O  0.44880476  0.55969586  0.67322138    -0.49800
C1361       C  0.42710472  0.55111832  0.70366641     0.75100
O1362       O  0.42459687  0.89262477  0.68033714    -0.66500
O1363       O  0.47125050  0.91156590  0.71110202    -0.53700
C1364       C  0.44033848  0.88744853  0.70038558     0.73500
Zr1365     Zr  0.43782914  0.94128366  0.64708997     2.77500
O1366       O  0.37620061  0.88940962  0.66328155    -0.97200
O1367       O  0.43883740  0.91354641  0.58534218    -0.78000
Zr1368     Zr  0.44957962  0.50772796  0.74208448     2.70100
O1369       O  0.39803014  0.97858189  0.78398753    -0.79300
O1370       O  0.97239500  0.55050499  0.79368954    -0.98400
Zr1371     Zr  0.00785839  0.97564197  0.71560008     2.21500
Zr1372     Zr  0.47962266  0.53819219  0.64161613     2.11100
O1373       O  0.43502502  0.98672610  0.67581412    -2.47100
O1374       O  0.45222985  0.95883515  0.70957319    -0.79100
O1375       O  0.48603099  0.99318546  0.62191304    -0.71300
O1376       O  0.00636270  0.52408234  0.74252456    -2.34000
O1377       O  0.49525582  0.95775286  0.64623059    -2.28400
O1378       O  0.99368465  0.55743049  0.70456335    -0.73000
H1379       H  0.05687406  0.57960987  0.62819445     0.79000
H1380       H  0.01429892  0.53174029  0.76795738     0.80000
H1381       H  0.41184443  0.98004598  0.67652403     0.82300
H1382       H  0.49437186  0.93790708  0.63683505     0.79900
H1383       H  0.05816349  0.59561662  0.78493525     0.42900
H1384       H  0.98281469  0.57302798  0.78227516     0.41900
H1385       H  0.37983482  0.95528188  0.77216096     0.41600
H1386       H  0.36329964  0.89871860  0.67235963     0.39500
H1387       H  0.44887592  0.90209588  0.58919025     0.42600
H1388       H  0.54555845  0.96735044  0.55362640     0.37400
H1389       H  0.11580525  0.55001458  0.60966849     0.43500
H1390       H  0.12084599  0.63632818  0.71851823     0.39900
H1391       H  0.36733153  0.87704497  0.63853042     0.44900
H1392       H  0.58408097  0.00376355  0.55315062     0.43600
H1393       H  0.12513869  0.61686094  0.68216093     0.43700
H1394       H  0.45332786  0.54795067  0.81013884     0.44100
C1395       C  0.15721874  0.84776757  0.82126605     0.30500
C1396       C  0.15481008  0.84539460  0.90020347     0.30500
C1397       C  0.15097414  0.87158729  0.84713346    -0.05700
C1398       C  0.12768616  0.81091804  0.83946062    -0.06500
C1399       C  0.19008853  0.85727034  0.83585558    -0.06400
C1400       C  0.14916956  0.86990624  0.88692717    -0.05700
C1401       C  0.12613833  0.81004475  0.87963873    -0.06500
C1402       C  0.18883592  0.85673809  0.87538418    -0.06400
C1403       C  0.12706207  0.87735157  0.90351278    -0.31700
N1404       N  0.11749120  0.88588150  0.87647086     0.14800
C1405       C  0.13157742  0.88191796  0.84197331    -0.31800
H1406       H  0.12690492  0.88461263  0.81459505     0.16700
C1407       C  0.10550922  0.77499368  0.88846469    -0.30700
N1408       N  0.09610723  0.75460456  0.85585092     0.13500
C1409       C  0.11031484  0.77615979  0.82589956    -0.30700
C1410       C  0.22194351  0.87096237  0.88308305    -0.31000
N1411       N  0.24297587  0.87933496  0.84962894     0.14000
H1412       H  0.23080889  0.87689258  0.91107537     0.16600
C1413       C  0.22387298  0.87034739  0.82047677    -0.31000
H1414       H  0.23461175  0.87530283  0.79076455     0.16600
H1415       H  0.11118820  0.76765368  0.79632341     0.16600
H1416       H  0.11618424  0.87385857  0.93321743     0.16700
H1417       H  0.10060182  0.76509650  0.91623575     0.16600
C1418       C  0.16481303  0.85480308  0.57152596     0.30500
C1419       C  0.16848184  0.86142452  0.65040467     0.30500
C1420       C  0.14032586  0.86079862  0.59728683    -0.05700
C1421       C  0.15507914  0.82267625  0.59064469    -0.06500
C1422       C  0.20161720  0.88540027  0.58576362    -0.06400
C1423       C  0.14301259  0.86491149  0.63645788    -0.05700
C1424       C  0.15883460  0.82724148  0.62978063    -0.06500
C1425       C  0.20348603  0.88893041  0.62591299    -0.06400
C1426       C  0.12856176  0.88072836  0.65223351    -0.31700
N1427       N  0.11478847  0.88430472  0.62490365     0.14800
C1428       C  0.12109692  0.87108583  0.59140352    -0.31800
H1429       H  0.11352357  0.86979705  0.56414487     0.16700
C1430       C  0.14556626  0.79563831  0.64284974    -0.30700
N1431       N  0.12978926  0.77061222  0.61480571     0.13500
C1432       C  0.13457189  0.78651569  0.58309110    -0.30700
C1433       C  0.23843129  0.90598950  0.63034830    -0.31000
N1434       N  0.25774784  0.91419797  0.59572730     0.14000
H1435       H  0.24869855  0.90870603  0.65635214     0.16600
C1436       C  0.23562046  0.90081017  0.56838755    -0.31000
H1437       H  0.24303880  0.89940654  0.53816029     0.16600
H1438       H  0.12096128  0.77235718  0.55802265     0.16600
H1439       H  0.13061207  0.89133108  0.68126767     0.16700
H1440       H  0.14446480  0.79053348  0.67196099     0.16600
C1441       C  0.16489758  0.86035712  0.69550630     0.00300
C1442       C  0.19240255  0.88675517  0.71776593    -0.11500
C1443       C  0.18975680  0.88394586  0.75780472     0.02600
C1444       C  0.16020719  0.85270586  0.77723002     0.00300
C1445       C  0.13125271  0.82831580  0.75582416    -0.11500
C1446       C  0.13275728  0.83269355  0.71661815     0.02500
H1447       H  0.21545228  0.91083738  0.70460543     0.15400
H1448       H  0.10635701  0.80653041  0.77013348     0.15400
C1449       C  0.10000793  0.80914956  0.69925337     0.37100
C1450       C  0.21714041  0.91481064  0.77838654     0.37000
N1451       N  0.07375244  0.79071011  0.68534820    -0.43200
N1452       N  0.23923001  0.93965706  0.79469353    -0.43200
C1453       C  0.15775695  0.84710607  0.94451489     0.00300
C1454       C  0.16579687  0.87656876  0.96819772    -0.11500
C1455       C  0.17079827  0.88031484  0.00740298     0.02600
C1456       C  0.16397474  0.85321510  0.52686526     0.00300
C1457       C  0.16120674  0.82579660  0.00181394    -0.11500
C1458       C  0.15927979  0.82364304  0.96182551     0.02500
H1459       H  0.17083308  0.89844130  0.95564378     0.15400
H1460       H  0.16268959  0.80749232  0.01297792     0.15400
C1461       C  0.16339522  0.79974237  0.93886003     0.37100
C1462       C  0.18264473  0.91369240  0.52775025     0.37000
N1463       N  0.16748170  0.78102591  0.92063352    -0.43200
N1464       N  0.19388004  0.94061174  0.54342090    -0.43200
C1465       C  0.10620895  0.73338428  0.62151329     0.00300
C1466       C  0.08600862  0.72170114  0.65736968    -0.11500
C1467       C  0.06643561  0.68688946  0.66748892     0.02600
C1468       C  0.06558914  0.66260938  0.64093585     0.00300
C1469       C  0.08381601  0.67331546  0.60422428    -0.11500
C1470       C  0.10457498  0.70868516  0.59446110     0.02500
H1471       H  0.08612740  0.74006470  0.67806337     0.15400
H1472       H  0.08306578  0.65436803  0.58383568     0.15400
C1473       C  0.12555253  0.71926038  0.55772840     0.37100
C1474       C  0.04769406  0.67676525  0.70539749     0.37000
N1475       N  0.14239095  0.72770313  0.52827441    -0.43200
N1476       N  0.51927871  0.66493833  0.72517639    -0.43200
C1477       C  0.29444415  0.92922796  0.59018605     0.00300
C1478       C  0.32027107  0.96511335  0.59916975    -0.11500
C1479       C  0.35537869  0.97954784  0.60153357     0.02600
C1480       C  0.36516380  0.95750335  0.59576834     0.00300
C1481       C  0.33923839  0.92172293  0.58458016    -0.11500
C1482       C  0.30432112  0.90769296  0.58153788     0.02500
H1483       H  0.31249063  0.98161276  0.60586000     0.15400
H1484       H  0.34577825  0.90417656  0.57977369     0.15400
C1485       C  0.27820190  0.87060655  0.57202020     0.37100
C1486       C  0.37726072  0.51655400  0.61381149     0.37000
N1487       N  0.25688313  0.84094100  0.56437483    -0.43200
N1488       N  0.39574140  0.54631614  0.62246380    -0.43200
C1489       C  0.07425394  0.94148124  0.64988323     0.00300
C1490       C  0.08707120  0.93889683  0.61226538    -0.11500
C1491       C  0.09961683  0.91977593  0.60275307     0.02600
C1492       C  0.09946511  0.90211913  0.63148667     0.00300
C1493       C  0.08560784  0.90397852  0.66891649    -0.11500
C1494       C  0.07378715  0.92364270  0.67851958     0.02500
H1495       H  0.08717379  0.95180164  0.58971578     0.15400
H1496       H  0.08396233  0.88993670  0.69131499     0.15400
C1497       C  0.06186636  0.92494924  0.71831381     0.37100
C1498       C  0.11224966  0.91958833  0.56313939     0.37000
N1499       N  0.05250298  0.92576741  0.75029530    -0.43200
N1500       N  0.12151936  0.91980190  0.53091765    -0.43200
C1501       C  0.05851109  0.64878213  0.86095231     0.00300
C1502       C  0.03535278  0.65491045  0.85446512    -0.11500
C1503       C  0.04749045  0.68946235  0.85121610     0.02600
C1504       C  0.08346912  0.71870175  0.85358825     0.00300
C1505       C  0.10694724  0.71268032  0.85775705    -0.11500
C1506       C  0.09505172  0.67846756  0.86160023     0.02500
H1507       H  0.00731006  0.63290312  0.85404031     0.15400
H1508       H  0.13469112  0.73516668  0.85926631     0.15400
C1509       C  0.12123355  0.67524388  0.86710940     0.37100
C1510       C  0.02232802  0.69455252  0.84758792     0.37000
N1511       N  0.14250763  0.67314821  0.87176045    -0.43200
N1512       N  0.00200976  0.69852385  0.84483823    -0.43200
C1513       C  0.35077942  0.93675435  0.86030819     0.00300
C1514       C  0.33645418  0.95424219  0.86563109    -0.11500
C1515       C  0.30137289  0.93616254  0.85939987     0.02600
C1516       C  0.28053194  0.90035478  0.84711349     0.00300
C1517       C  0.29578110  0.88387589  0.83813317    -0.11500
C1518       C  0.33081152  0.90179077  0.84469342     0.02500
H1519       H  0.35174777  0.98115186  0.87735034     0.15400
H1520       H  0.27959874  0.85639004  0.82833525     0.15400
C1521       C  0.34528380  0.88345603  0.83636976     0.37100
C1522       C  0.28649570  0.95405647  0.86811610     0.37000
N1523       N  0.35688583  0.86877638  0.82973978    -0.43200
N1524       N  0.27474383  0.96857566  0.87522998    -0.43200
C1525       C  0.05908225  0.92479048  0.90179720     0.00300
C1526       C  0.05471825  0.90405735  0.86823114    -0.11500
C1527       C  0.07232431  0.88970702  0.85989529     0.02600
C1528       C  0.09643976  0.89752160  0.88449515     0.00300
C1529       C  0.10000429  0.91741977  0.91837644    -0.11500
C1530       C  0.08120402  0.93026067  0.92762083     0.02500
H1531       H  0.03688903  0.89841847  0.84867428     0.15400
H1532       H  0.11810207  0.92345935  0.93778075     0.15400
C1533       C  0.08600576  0.94938275  0.96369099     0.37100
C1534       C  0.06332858  0.86547090  0.82733795     0.37000
N1535       N  0.09013573  0.96427720  0.99297724    -0.43200
N1536       N  0.05572362  0.84581738  0.80137420    -0.43200
C1537       C  0.38057182  0.60239926  0.72269444     0.00300
C1538       C  0.36036136  0.56746185  0.73369422    -0.11500
C1539       C  0.37478409  0.55001137  0.72811959     0.02600
C1540       C  0.41009378  0.56782770  0.71108544     0.00300
C1541       C  0.43021924  0.60303626  0.70062646    -0.11500
C1542       C  0.41586234  0.62041916  0.70664296     0.02500
H1543       H  0.33311630  0.55374948  0.74607894     0.15400
H1544       H  0.45745821  0.61719780  0.68801908     0.15400
C1545       C  0.43820899  0.65712217  0.69742427     0.37100
C1546       C  0.35221797  0.51349841  0.73838072     0.37000
N1547       N  0.45677070  0.68671365  0.69038846    -0.43200
N1548       N  0.33300156  0.97570608  0.73019255    -0.43200
C1549       C  0.38893350  0.78241492  0.73341089     0.00300
C1550       C  0.36993648  0.79514752  0.73864919    -0.11500
C1551       C  0.38607778  0.82936890  0.72818363     0.02600
C1552       C  0.42191539  0.85130005  0.71228361     0.00300
C1553       C  0.44120585  0.83889761  0.70866345    -0.11500
C1554       C  0.42484900  0.80455903  0.71857526     0.02500
H1555       H  0.34211222  0.77776458  0.74959537     0.15400
H1556       H  0.46883130  0.85568037  0.69683637     0.15400
C1557       C  0.44494287  0.79200878  0.71189141     0.37100
C1558       C  0.36549077  0.84141047  0.73453747     0.37000
N1559       N  0.46130072  0.78219820  0.70629312    -0.43200
N1560       N  0.34887918  0.85093794  0.73976349    -0.43200
C1561       C  0.19157190  0.58250029  0.75928169     0.00300
C1562       C  0.18051324  0.60214435  0.77478938    -0.11500
C1563       C  0.14582285  0.58906873  0.77289552     0.02600
C1564       C  0.12086250  0.55489017  0.75666760     0.00300
C1565       C  0.13136125  0.53417057  0.74401897    -0.11500
C1566       C  0.16655557  0.54799648  0.74445455     0.02500
H1567       H  0.19983636  0.62884088  0.78580982     0.15400
H1568       H  0.11288364  0.50823406  0.73085443     0.15400
C1569       C  0.17697508  0.52706890  0.72785416     0.37100
C1570       C  0.13738496  0.61230123  0.78543276     0.37000
N1571       N  0.18532517  0.51030536  0.71433961    -0.43200
N1572       N  0.13080429  0.63112496  0.79493395    -0.43200
C1573       C  0.38820954  0.61036441  0.96520694     0.00300
C1574       C  0.41347683  0.62111775  0.98936681    -0.11500
C1575       C  0.43175538  0.60767200  0.98405671     0.02600
C1576       C  0.42481487  0.58278034  0.95389020     0.00300
C1577       C  0.39979089  0.57228852  0.92945736    -0.11500
C1578       C  0.38127114  0.58551999  0.93505297     0.02500
H1579       H  0.41922618  0.64049448  0.01228068     0.15400
H1580       H  0.39390863  0.55287425  0.90653202     0.15400
C1581       C  0.35411110  0.57177580  0.91065160     0.37100
C1582       C  0.45826259  0.62091052  0.00926048     0.37000
N1583       N  0.33238905  0.56071418  0.89097575    -0.43200
N1584       N  0.97428793  0.62513358  0.03359116    -0.43200
C1585       C  0.42055953  0.85876752  0.00136722     0.00300
C1586       C  0.44172087  0.84826442  0.99462626    -0.11500
C1587       C  0.42660547  0.81289503  0.99749350     0.02600
C1588       C  0.38997673  0.78751754  0.00739398     0.00300
C1589       C  0.37082722  0.79860578  0.51705256    -0.11500
C1590       C  0.38509304  0.83372379  0.51391747     0.02500
H1591       H  0.46971112  0.86720658  0.98485449     0.15400
H1592       H  0.34274419  0.77867055  0.52562229     0.15400
C1593       C  0.36186153  0.84259545  0.52382021     0.37100
C1594       C  0.44871463  0.80266062  0.98919443     0.37000
N1595       N  0.34314771  0.84958725  0.53173631    -0.43200
N1596       N  0.46624852  0.79419775  0.98291256    -0.43200
C1597       C  0.12944863  0.55589771  0.98352323     0.00300
C1598       C  0.14238405  0.53814490  0.96691291    -0.11500
C1599       C  0.17636979  0.55141835  0.97207666     0.02600
C1600       C  0.19736418  0.58245939  0.99452382     0.00300
C1601       C  0.18378108  0.59708136  0.51450218    -0.11500
C1602       C  0.15028789  0.58472963  0.50839947     0.02500
H1603       H  0.12680962  0.51523311  0.94804742     0.15400
H1604       H  0.19974659  0.62027978  0.53288027     0.15400
C1605       C  0.13670283  0.60219517  0.52799310     0.37100
C1606       C  0.19014424  0.53410918  0.95265201     0.37000
N1607       N  0.12561013  0.61603998  0.54354349    -0.43200
N1608       N  0.20143228  0.52045882  0.93705878    -0.43200
C1609       C  0.32683680  0.66223942  0.90637781     0.00300
C1610       C  0.31974283  0.63324914  0.88270976    -0.11500
C1611       C  0.31529966  0.62975716  0.84343667     0.02600
C1612       C  0.32203345  0.65760570  0.82445291     0.00300
C1613       C  0.32364297  0.68358285  0.84904549    -0.11500
C1614       C  0.32366993  0.68460975  0.88925785     0.02500
H1615       H  0.31481701  0.61153444  0.89558513     0.15400
H1616       H  0.32141540  0.70124104  0.83751006     0.15400
C1617       C  0.31405506  0.70437524  0.91218211     0.37100
C1618       C  0.29957783  0.59545221  0.82490925     0.37000
N1619       N  0.30550479  0.71966184  0.93031521    -0.43200
N1620       N  0.28655872  0.56775450  0.81040527    -0.43200
C1621       C  0.32284166  0.65694812  0.57410608     0.00300
C1622       C  0.35112120  0.66347238  0.58959633    -0.11500
C1623       C  0.35148605  0.66331924  0.62937699     0.02600
C1624       C  0.32154498  0.65325201  0.65594875     0.00300
C1625       C  0.29622915  0.65254645  0.64110388    -0.11500
C1626       C  0.29741952  0.65574047  0.60158209     0.02500
H1627       H  0.37467271  0.67158041  0.57081896     0.15400
H1628       H  0.27681349  0.65236431  0.66076607     0.15400
C1629       C  0.27484614  0.66205274  0.59126139     0.37100
C1630       C  0.38514741  0.67884905  0.64183127     0.37000
N1631       N  0.25672503  0.66733868  0.58354597    -0.43200
N1632       N  0.41266914  0.69216927  0.65108791    -0.43200
C1633       C  0.82555106  0.15684301  0.02793512     0.30500
C1634       C  0.83092396  0.16301905  0.44985472     0.30500
C1635       C  0.84551657  0.14551718  0.00108906    -0.05700
C1636       C  0.79072133  0.13484747  0.00908400    -0.06500
C1637       C  0.84482251  0.19422375  0.01404692    -0.06400
C1638       C  0.84884678  0.14956945  0.46254895    -0.05700
C1639       C  0.79382564  0.13826992  0.47116889    -0.06500
C1640       C  0.84798392  0.19756449  0.47464777    -0.06400
C1641       C  0.86625519  0.13718447  0.44450201    -0.31700
N1642       N  0.87243152  0.12500767  0.47125279     0.14800
C1643       C  0.85987800  0.12952932  0.00479121    -0.31800
H1644       H  0.86005511  0.12068360  0.03093908     0.16700
C1645       C  0.76042033  0.11669308  0.46033918    -0.30700
N1646       N  0.73730377  0.10105612  0.98905988     0.13500
C1647       C  0.75479192  0.11048600  0.01998701    -0.30700
C1648       C  0.86884415  0.23307067  0.46829756    -0.31000
N1649       N  0.87740461  0.25112058  0.00291680     0.14000
H1650       H  0.87825893  0.24522617  0.44091424     0.16600
C1651       C  0.86193326  0.22759536  0.03097568    -0.31000
H1652       H  0.86322616  0.23431577  0.06125021     0.16600
H1653       H  0.74197071  0.10069851  0.04827262     0.16600
H1654       H  0.87395544  0.13701590  0.41416133     0.16700
H1655       H  0.75338498  0.11453349  0.43221656     0.16600
C1656       C  0.82522022  0.15617869  0.27846878     0.30500
C1657       C  0.82138164  0.14999401  0.19933226     0.30500
C1658       C  0.84150758  0.14049073  0.25308685    -0.05700
C1659       C  0.78780466  0.13317288  0.26514454    -0.06500
C1660       C  0.84429202  0.19103259  0.25749989    -0.06400
C1661       C  0.83819789  0.13609332  0.21368808    -0.05700
C1662       C  0.78577959  0.12980533  0.22546618    -0.06500
C1663       C  0.84193495  0.18710677  0.21797748    -0.06400
C1664       C  0.85041931  0.11811317  0.19770210    -0.31700
N1665       N  0.86316927  0.11380396  0.22520384     0.14800
C1666       C  0.85878073  0.12796633  0.25871623    -0.31800
H1667       H  0.86729522  0.12862622  0.28517967     0.16700
C1668       C  0.75025525  0.10815399  0.22068602    -0.30700
N1669       N  0.73103812  0.09943833  0.25556487     0.13500
C1670       C  0.75358872  0.11472530  0.28289720    -0.30700
C1671       C  0.85867353  0.21955461  0.20429708    -0.31000
N1672       N  0.87152518  0.24376980  0.23355570     0.14000
H1673       H  0.86065074  0.22514569  0.17506845     0.16600
C1674       C  0.86343239  0.22702333  0.26614324    -0.31000
H1675       H  0.87027152  0.24012936  0.29392063     0.16600
H1676       H  0.74571871  0.11324203  0.31337103     0.16600
H1677       H  0.85026015  0.10888527  0.16826066     0.16700
H1678       H  0.73889002  0.09992057  0.19393545     0.16600
O1679       O  0.53577519  0.45194561  0.38095755    -0.74800
O1680       O  0.53268256  0.45047231  0.44510809    -0.53700
C1681       C  0.54142802  0.44463683  0.41067075     0.78900
O1682       O  0.56415081  0.11171945  0.39002504    -0.59400
O1683       O  0.01598161  0.08764181  0.36096111    -0.52400
C1684       C  0.54553567  0.11363569  0.37069366     0.70900
O1685       O  0.60177910  0.06791670  0.45083871    -0.74000
O1686       O  0.57164313  0.01572430  0.48035448    -0.54500
C1687       C  0.59985113  0.04655387  0.47058236     0.76900
O1688       O  0.49842773  0.49504445  0.31792151    -0.59100
O1689       O  0.95536735  0.99693210  0.32678990    -0.52200
C1690       C  0.97015564  0.98410817  0.31081515     0.73500
Zr1691     Zr  0.50573048  0.47349010  0.36733917     2.54700
O1692       O  0.54913013  0.97928608  0.31192590    -0.79700
O1693       O  0.96804760  0.41568252  0.33496977    -0.93100
Zr1694     Zr  0.56192730  0.06714959  0.41763919     2.64700
O1695       O  0.60641054  0.08137898  0.36402416    -0.98000
O1696       O  0.60456725  0.12460928  0.44792263    -0.80100
O1697       O  0.54594901  0.00974975  0.41214615    -0.83500
O1698       O  0.52600129  0.03258820  0.36829987    -2.18200
O1699       O  0.88431113  0.43706517  0.39891903    -0.66800
O1700       O  0.91010717  0.49021901  0.37416515    -0.51400
C1701       C  0.88408272  0.45725855  0.37975815     0.71900
O1702       O  0.96849626  0.99377500  0.03131966    -0.59800
O1703       O  0.50330623  0.48613057  0.03832413    -0.51700
C1704       C  0.98980470  0.50018207  0.04820661     0.73700
O1705       O  0.95159078  0.06065419  0.47680339    -0.71100
O1706       O  0.95034626  0.05811323  0.41271182    -0.49800
C1707       C  0.94422813  0.06627414  0.44715126     0.75100
O1708       O  0.91559932  0.39610726  0.47199445    -0.66500
O1709       O  0.96878331  0.41976482  0.49110142    -0.53700
C1710       C  0.93595677  0.39396532  0.48754121     0.73500
Zr1711     Zr  0.92125426  0.44090884  0.43992309     2.77500
O1712       O  0.87927771  0.43250225  0.49405538    -0.97200
O1713       O  0.87617208  0.38182108  0.41457769    -0.78000
Zr1714     Zr  0.98088717  0.03848090  0.49164988     2.70100
O1715       O  0.94088589  0.53746458  0.04805688    -0.79300
O1716       O  0.52419476  0.09252696  0.01549923    -0.98400
Zr1717     Zr  0.50820982  0.47978177  0.47149919     2.21500
Zr1718     Zr  0.97395094  0.02821213  0.38667947     2.11100
O1719       O  0.93757684  0.49877163  0.44507609    -2.47100
O1720       O  0.95846458  0.47718557  0.48707845    -0.79100
O1721       O  0.95586347  0.46948305  0.38337270    -0.71300
O1722       O  0.52946768  0.03938987  0.47566136    -2.32200
O1723       O  0.97172850  0.44349084  0.42131424    -2.28400
O1724       O  0.51093224  0.06348059  0.43392822    -0.73000
H1725       H  0.54037089  0.04705310  0.34629793     0.79000
H1726       H  0.54515606  0.05281763  0.99248213     0.80000
H1727       H  0.91630142  0.49641844  0.45008840     0.82300
H1728       H  0.96563534  0.42042760  0.41866539     0.79900
H1729       H  0.59006698  0.13035991  0.46349023     0.42900
H1730       H  0.53483275  0.10848609  0.99392495     0.41900
H1731       H  0.91587843  0.51959643  0.04269454     0.41600
H1732       H  0.85708105  0.40829484  0.48989782     0.39500
H1733       H  0.88971464  0.37501749  0.39878391     0.42600
H1734       H  0.94396175  0.40583129  0.34718082     0.37400
H1735       H  0.57282872  0.99968019  0.31945494     0.43500
H1736       H  0.62906844  0.09591556  0.37547287     0.39900
H1737       H  0.88776448  0.43070709  0.51619491     0.44900
H1738       H  0.97311961  0.40153592  0.34462388     0.43600
H1739       H  0.60175649  0.05874670  0.35634566     0.43700
H1740       H  0.01225510  0.09933082  0.03561955     0.44100
O1741       O  0.55970836  0.47766987  0.12729883    -0.74800
O1742       O  0.54047961  0.45817236  0.18755665    -0.53700
C1743       C  0.55665845  0.46065134  0.15448945     0.78900
O1744       O  0.56188123  0.12150085  0.17656194    -0.59400
O1745       O  0.02094941  0.10058891  0.13559871    -0.52400
C1746       C  0.54820987  0.12542563  0.15202257     0.70900
O1747       O  0.59131941  0.06811098  0.23354659    -0.74000
O1748       O  0.56280640  0.01080194  0.24619645    -0.54500
C1749       C  0.58991033  0.04400602  0.24646489     0.76900
O1750       O  0.54748191  0.54869242  0.07226198    -0.59100
O1751       O  0.00844922  0.05376839  0.07576037    -0.52200
C1752       C  0.01979828  0.03726827  0.06131318     0.73500
Zr1753     Zr  0.54169192  0.51286898  0.11837804     2.54700
O1754       O  0.60714045  0.05626654  0.11065693    -0.79700
O1755       O  0.04931954  0.48580111  0.05715907    -0.93100
Zr1756     Zr  0.55393986  0.07349469  0.20418527     2.64700
O1757       O  0.61559634  0.12252153  0.18415903    -0.98000
O1758       O  0.55737956  0.10594324  0.26386459    -0.80100
O1759       O  0.55580838  0.02695947  0.17935039    -0.83500
O1760       O  0.54091725  0.05643213  0.14086851    -2.18200
O1761       O  0.89814495  0.44597664  0.11769412    -0.66800
O1762       O  0.92408527  0.50370415  0.11253430    -0.51400
C1763       C  0.89808408  0.47042503  0.10870294     0.71900
O1764       O  0.93352461  0.95253713  0.26294190    -0.59800
O1765       O  0.46743283  0.44283118  0.27011082    -0.51700
C1766       C  0.95270121  0.45495202  0.28416639     0.73700
O1767       O  0.92141365  0.02769933  0.22485456    -0.71100
O1768       O  0.95050024  0.05815999  0.17019158    -0.49800
C1769       C  0.92823683  0.04876252  0.20018802     0.75100
O1770       O  0.92431740  0.39338256  0.18044953    -0.66500
O1771       O  0.96851644  0.41200694  0.21496005    -0.53700
C1772       C  0.93896495  0.38752870  0.20131989     0.73500
Zr1773     Zr  0.93463932  0.44222869  0.15170279     2.77500
O1774       O  0.87296380  0.39854442  0.17813518    -0.97200
O1775       O  0.92799170  0.40818630  0.09247360    -0.78000
Zr1776     Zr  0.95183994  0.00692017  0.24034089     2.70100
O1777       O  0.89705554  0.48208800  0.28815779    -0.79300
O1778       O  0.47593724  0.05120033  0.29251505    -0.98400
Zr1779     Zr  0.50645933  0.47636062  0.21529691     2.21500
Zr1780     Zr  0.98228359  0.03759824  0.14004364     2.11100
O1781       O  0.93305973  0.48853072  0.17921410    -2.47100
O1782       O  0.94934747  0.45995944  0.21402791    -0.79100
O1783       O  0.98282938  0.49333035  0.12519174    -0.71300
O1784       O  0.50983930  0.02440198  0.24202722    -2.34000
O1785       O  0.99189882  0.45819785  0.15031529    -2.28400
O1786       O  0.49690722  0.05657537  0.20319108    -0.73000
H1787       H  0.55877807  0.07778395  0.12701513     0.79000
H1788       H  0.51784855  0.03231460  0.26716565     0.80000
H1789       H  0.90998209  0.48199493  0.17941154     0.82300
H1790       H  0.99107748  0.43835117  0.14107458     0.79900
H1791       H  0.56139293  0.09615602  0.28284663     0.42900
H1792       H  0.48792957  0.07385132  0.28033664     0.41900
H1793       H  0.87827144  0.45901920  0.27642907     0.41600
H1794       H  0.86575547  0.41255375  0.19090279     0.39500
H1795       H  0.94696423  0.40621540  0.09040243     0.42600
H1796       H  0.03519947  0.46026869  0.06116247     0.37400
H1797       H  0.61582603  0.05225878  0.08502198     0.43500
H1798       H  0.62678685  0.13365467  0.20817722     0.39900
H1799       H  0.85933095  0.38688653  0.15573762     0.44900
H1800       H  0.07434919  0.49569079  0.05564632     0.43600
H1801       H  0.62594938  0.11124258  0.17183527     0.43700
H1802       H  0.95746183  0.04951753  0.30674820     0.44100
C1803       C  0.65601091  0.34931371  0.32406747     0.30500
C1804       C  0.65204163  0.34561976  0.40325438     0.30500
C1805       C  0.64803920  0.37174906  0.35027613    -0.05700
C1806       C  0.62718521  0.31191370  0.34142942    -0.06500
C1807       C  0.68913482  0.36000817  0.33965679    -0.06400
C1808       C  0.64546301  0.36939869  0.38999679    -0.05700
C1809       C  0.62477141  0.31034013  0.38158710    -0.06500
C1810       C  0.68694940  0.35867643  0.37928724    -0.06400
C1811       C  0.62408388  0.37774572  0.40651565    -0.31700
N1812       N  0.61584665  0.38760650  0.37936751     0.14800
C1813       C  0.63009795  0.38362919  0.34491974    -0.31800
H1814       H  0.62674720  0.38766139  0.31747675     0.16700
C1815       C  0.60415611  0.27510817  0.38971965    -0.30700
N1816       N  0.59584189  0.25530164  0.35667480     0.13500
C1817       C  0.61045427  0.27742484  0.32715696    -0.30700
C1818       C  0.71991278  0.37340806  0.38808486    -0.31000
N1819       N  0.74189800  0.38296749  0.35525485     0.14000
H1820       H  0.72791423  0.37859185  0.41642784     0.16600
C1821       C  0.72349120  0.37414224  0.32540805    -0.31000
H1822       H  0.73496467  0.37954816  0.29594705     0.16600
H1823       H  0.61191221  0.26953419  0.29743461     0.16600
H1824       H  0.61304778  0.37433611  0.43616079     0.16700
H1825       H  0.59836278  0.26468471  0.41742119     0.16600
C1826       C  0.66249754  0.35428163  0.07306754     0.30500
C1827       C  0.66569302  0.36123180  0.15242222     0.30500
C1828       C  0.64067232  0.36382217  0.09813593    -0.05700
C1829       C  0.64910119  0.32107401  0.09336066    -0.06500
C1830       C  0.69970748  0.38258419  0.08726573    -0.06400
C1831       C  0.64299333  0.36803480  0.13748787    -0.05700
C1832       C  0.65250928  0.32561843  0.13258892    -0.06500
C1833       C  0.70138202  0.38612603  0.12734294    -0.06400
C1834       C  0.62816970  0.38360490  0.15269042    -0.31700
N1835       N  0.61512396  0.38736102  0.12459715     0.14800
C1836       C  0.62171258  0.37410642  0.09144091    -0.31800
H1837       H  0.61387918  0.37226282  0.06409523     0.16700
C1838       C  0.63833604  0.29377440  0.14584815    -0.30700
N1839       N  0.62283467  0.26880121  0.11764921     0.13500
C1840       C  0.62858748  0.28495995  0.08561810    -0.30700
C1841       C  0.73638245  0.40390850  0.13216125    -0.31000
N1842       N  0.75579471  0.41221638  0.09751252     0.14000
H1843       H  0.74684810  0.40767692  0.15843317     0.16600
C1844       C  0.73379420  0.39867595  0.06994455    -0.31000
H1845       H  0.74157226  0.39826334  0.03963952     0.16600
H1846       H  0.61623162  0.27114326  0.05982034     0.16600
H1847       H  0.62882516  0.39333062  0.18196916     0.16700
H1848       H  0.63762640  0.28875973  0.17484669     0.16600
C1849       C  0.66252249  0.36081192  0.19775633     0.00300
C1850       C  0.69061229  0.38706913  0.21952872    -0.11500
C1851       C  0.68837515  0.38487781  0.25972933     0.02600
C1852       C  0.65883681  0.35408038  0.27982951     0.00300
C1853       C  0.62934486  0.33002149  0.25895342    -0.11500
C1854       C  0.63035029  0.33410491  0.21970644     0.02500
H1855       H  0.71374385  0.41079628  0.20588096     0.15400
H1856       H  0.60442807  0.30872391  0.27378734     0.15400
C1857       C  0.59710299  0.31129534  0.20328593     0.37100
C1858       C  0.71589411  0.41613905  0.27975006     0.37000
N1859       N  0.57033930  0.29327987  0.19038071    -0.43200
N1860       N  0.73808025  0.44142576  0.29550342    -0.43200
C1861       C  0.65437895  0.34687171  0.44764028     0.00300
C1862       C  0.66230090  0.37629778  0.47132006    -0.11500
C1863       C  0.66719458  0.38003338  0.51053562     0.02600
C1864       C  0.66147092  0.35221170  0.02836313     0.00300
C1865       C  0.65810969  0.32577626  0.50491903    -0.11500
C1866       C  0.65602696  0.32348505  0.46499988     0.02500
H1867       H  0.66727161  0.39813603  0.45877415     0.15400
H1868       H  0.65975655  0.30760535  0.51610824     0.15400
C1869       C  0.65975940  0.29919996  0.44241273     0.37100
C1870       C  0.68292987  0.41367886  0.02692042     0.37000
N1871       N  0.66329918  0.27982991  0.42495495    -0.43200
N1872       N  0.69614568  0.44155522  0.04099438    -0.43200
C1873       C  0.60077099  0.23151666  0.12381837     0.00300
C1874       C  0.58187848  0.21906606  0.16016024    -0.11500
C1875       C  0.56491691  0.18467141  0.16994777     0.02600
C1876       C  0.56496315  0.16139020  0.14248234     0.00300
C1877       C  0.58147275  0.17261293  0.10536235    -0.11500
C1878       C  0.59997875  0.20767076  0.09597799     0.02500
H1879       H  0.58117851  0.23659630  0.18152226     0.15400
H1880       H  0.58123017  0.15435379  0.08423037     0.15400
C1881       C  0.61966189  0.21879416  0.05866560     0.37100
C1882       C  0.54804983  0.17396395  0.20844193     0.37000
N1883       N  0.63543911  0.22763524  0.02871177    -0.43200
N1884       N  0.02887959  0.16469946  0.23659252    -0.43200
C1885       C  0.79281390  0.42846813  0.09204890     0.00300
C1886       C  0.81770012  0.46425644  0.10224043    -0.11500
C1887       C  0.85313305  0.47966161  0.10428926     0.02600
C1888       C  0.86413167  0.45867353  0.09689445     0.00300
C1889       C  0.83925507  0.42317865  0.08432519    -0.11500
C1890       C  0.80399510  0.40813374  0.08181564     0.02500
H1891       H  0.80892955  0.47983631  0.11011964     0.15400
H1892       H  0.84682518  0.40649087  0.07835256     0.15400
C1893       C  0.77890044  0.37104450  0.07171973     0.37100
C1894       C  0.88080646  0.01703965  0.11125522     0.37000
N1895       N  0.75856887  0.34127923  0.06375910    -0.43200
N1896       N  0.89946625  0.04694246  0.11925403    -0.43200
C1897       C  0.57159574  0.44161608  0.14711701     0.00300
C1898       C  0.58661981  0.44080128  0.11011118    -0.11500
C1899       C  0.60028653  0.42265010  0.10132792     0.02600
C1900       C  0.59897211  0.40426624  0.13019454     0.00300
C1901       C  0.58284961  0.40422723  0.16678925    -0.11500
C1902       C  0.56989931  0.42285092  0.17573350     0.02500
H1903       H  0.58780538  0.45451460  0.08761190     0.15400
H1904       H  0.58038136  0.38952846  0.18905556     0.15400
C1905       C  0.55563074  0.42216578  0.21498194     0.37100
C1906       C  0.61530658  0.42419266  0.06238204     0.37000
N1907       N  0.54442378  0.42148677  0.24652899    -0.43200
N1908       N  0.62639893  0.42573765  0.03061759    -0.43200
C1909       C  0.56019730  0.14995423  0.36060396     0.00300
C1910       C  0.53678102  0.15555911  0.35348671    -0.11500
C1911       C  0.54829259  0.18992425  0.35053670     0.02600
C1912       C  0.58394614  0.21961766  0.35392891     0.00300
C1913       C  0.60775636  0.21417083  0.35868425    -0.11500
C1914       C  0.59647415  0.18011671  0.36217249     0.02500
H1915       H  0.50894400  0.13321773  0.35221948     0.15400
H1916       H  0.63527602  0.23697198  0.36089184     0.15400
C1917       C  0.62300486  0.17756484  0.36823567     0.37100
C1918       C  0.52275087  0.19423763  0.34594276     0.37000
N1919       N  0.64456594  0.17602488  0.37331108    -0.43200
N1920       N  0.50203735  0.19744072  0.34233902    -0.43200
C1921       C  0.85043611  0.44092426  0.36485013     0.00300
C1922       C  0.83539042  0.45773448  0.37300162    -0.11500
C1923       C  0.79992304  0.43938323  0.36796996     0.02600
C1924       C  0.77945917  0.40410066  0.35380405     0.00300
C1925       C  0.79522455  0.38829568  0.34256981    -0.11500
C1926       C  0.83054728  0.40637513  0.34807105     0.02500
H1927       H  0.85047922  0.48419987  0.38590912     0.15400
H1928       H  0.77932253  0.36119762  0.33147364     0.15400
C1929       C  0.84551150  0.38864523  0.33716288     0.37100
C1930       C  0.78427861  0.45635447  0.37952851     0.37000
N1931       N  0.85744316  0.37439826  0.32833949    -0.43200
N1932       N  0.77159891  0.46982070  0.38895257    -0.43200
C1933       C  0.55926261  0.42850935  0.40417409     0.00300
C1934       C  0.55565613  0.40873045  0.37003650    -0.11500
C1935       C  0.57274995  0.39389616  0.36180715     0.02600
C1936       C  0.59564375  0.40022112  0.38716284     0.00300
C1937       C  0.59859629  0.41935882  0.42157310    -0.11500
C1938       C  0.58021077  0.43268440  0.43063957     0.02500
H1939       H  0.53866823  0.40407420  0.34995685     0.15400
H1940       H  0.61575059  0.42429723  0.44157400     0.15400
C1941       C  0.58396132  0.45075556  0.46725698     0.37100
C1942       C  0.56440619  0.37066787  0.32842830     0.37000
N1943       N  0.58705386  0.46479520  0.49694236    -0.43200
N1944       N  0.55738490  0.35188777  0.30172985    -0.43200
C1945       C  0.87928706  0.09740123  0.21951273     0.00300
C1946       C  0.85836187  0.06102318  0.22451541    -0.11500
C1947       C  0.87367342  0.04442685  0.21881730     0.02600
C1948       C  0.91037241  0.06446703  0.20716273     0.00300
C1949       C  0.93106373  0.10087855  0.20201700    -0.11500
C1950       C  0.91586607  0.11745657  0.20873845     0.02500
H1951       H  0.83013368  0.04575483  0.23292606     0.15400
H1952       H  0.95935180  0.11656610  0.19357592     0.15400
C1953       C  0.93829023  0.15525285  0.20570349     0.37100
C1954       C  0.85115873  0.00685597  0.22405119     0.37000
N1955       N  0.95636283  0.18563995  0.20380734    -0.43200
N1956       N  0.83026885  0.47534536  0.22294009    -0.43200
C1957       C  0.88711084  0.28002492  0.22960012     0.00300
C1958       C  0.87092186  0.28696126  0.20808583    -0.11500
C1959       C  0.88730287  0.32116510  0.19783725     0.02600
C1960       C  0.92040414  0.35017958  0.21077913     0.00300
C1961       C  0.93609217  0.34314651  0.23351721    -0.11500
C1962       C  0.92004248  0.30845670  0.24240117     0.02500
H1963       H  0.84568829  0.26504105  0.19788116     0.15400
H1964       H  0.96154477  0.36463781  0.24353315     0.15400
C1965       C  0.93905649  0.30249587  0.26205357     0.37100
C1966       C  0.86988909  0.32469808  0.17232303     0.37000
N1967       N  0.95453292  0.29777449  0.27748717    -0.43200
N1968       N  0.85593200  0.32705603  0.15138901    -0.43200
C1969       C  0.69381421  0.08247157  0.26166342     0.00300
C1970       C  0.68326065  0.10273657  0.27610037    -0.11500
C1971       C  0.64870802  0.08994409  0.27395302     0.02600
C1972       C  0.62340250  0.05544878  0.25859662     0.00300
C1973       C  0.63331824  0.03406200  0.24747751    -0.11500
C1974       C  0.66837894  0.04759135  0.24805785     0.02500
H1975       H  0.70291749  0.12969116  0.28623871     0.15400
H1976       H  0.61453497  0.00778552  0.23513950     0.15400
C1977       C  0.67827395  0.02603368  0.23242319     0.37100
C1978       C  0.64078216  0.11371469  0.28536048     0.37000
N1979       N  0.68609512  0.00869033  0.21959825    -0.43200
N1980       N  0.63460635  0.13293125  0.29414269    -0.43200
C1981       C  0.89041416  0.11030147  0.46439119     0.00300
C1982       C  0.91676754  0.12212973  0.48741817    -0.11500
C1983       C  0.93486474  0.10851376  0.48213979     0.02600
C1984       C  0.92659139  0.08231248  0.45319886     0.00300
C1985       C  0.90027065  0.07057324  0.42996023    -0.11500
C1986       C  0.88202777  0.08412949  0.43547058     0.02500
H1987       H  0.92349964  0.14250327  0.50938604     0.15400
H1988       H  0.89338544  0.05018761  0.40795837     0.15400
C1989       C  0.85396243  0.06980533  0.41215903     0.37100
C1990       C  0.96253402  0.12289572  0.50609077     0.37000
N1991       N  0.83153710  0.05845235  0.39340694    -0.43200
N1992       N  0.48311400  0.13147330  0.52692308    -0.43200
C1993       C  0.92157034  0.35866651  0.49890504     0.00300
C1994       C  0.94290147  0.34844647  0.48939769    -0.11500
C1995       C  0.92874485  0.31347085  0.49309649     0.02600
C1996       C  0.89284630  0.28813165  0.50663560     0.00300
C1997       C  0.87305617  0.29809044  0.02119843    -0.11500
C1998       C  0.88596350  0.33262259  0.01682991     0.02500
H1999       H  0.97018574  0.36732961  0.47715720     0.15400
H2000       H  0.84581610  0.27830096  0.03291350     0.15400
C2001       C  0.86284440  0.34131810  0.02963944     0.37100
C2002       C  0.95110054  0.30366614  0.48210561     0.37000
N2003       N  0.84420145  0.34815978  0.03992163    -0.43200
N2004       N  0.96898004  0.29570817  0.47363586    -0.43200
C2005       C  0.63298555  0.05733841  0.48081382     0.00300
C2006       C  0.64689130  0.04161344  0.46017446    -0.11500
C2007       C  0.68027768  0.05344534  0.46566439     0.02600
C2008       C  0.69998447  0.08125348  0.49232812     0.00300
C2009       C  0.68659340  0.09934258  0.00947146    -0.11500
C2010       C  0.65302372  0.08717416  0.00389000     0.02500
H2011       H  0.63233968  0.02121554  0.43845534     0.15400
H2012       H  0.70300322  0.12276751  0.02740676     0.15400
C2013       C  0.64043112  0.10571094  0.02287063     0.37100
C2014       C  0.69470830  0.03803130  0.44241738     0.37000
N2015       N  0.63042225  0.12065836  0.03800503    -0.43200
N2016       N  0.70641804  0.02585035  0.42366866    -0.43200
C2017       C  0.83000527  0.16275368  0.40549506     0.00300
C2018       C  0.82301127  0.13366528  0.38222520    -0.11500
C2019       C  0.81897441  0.12990968  0.34282254     0.02600
C2020       C  0.82562366  0.15746020  0.32323092     0.00300
C2021       C  0.82702750  0.18355398  0.34748642    -0.11500
C2022       C  0.82709048  0.18506100  0.38782429     0.02500
H2023       H  0.81784368  0.11200199  0.39552712     0.15400
H2024       H  0.82478374  0.20103603  0.33555142     0.15400
C2025       C  0.81797974  0.20540101  0.41035027     0.37100
C2026       C  0.80369267  0.09547194  0.32496974     0.37000
N2027       N  0.80990367  0.22116215  0.42828999    -0.43200
N2028       N  0.79121426  0.06759732  0.31126974    -0.43200
C2029       C  0.82350831  0.15481394  0.07256781     0.00300
C2030       C  0.85157683  0.16091990  0.08812615    -0.11500
C2031       C  0.85174996  0.16020197  0.12788700     0.02600
C2032       C  0.82193015  0.15037131  0.15462398     0.00300
C2033       C  0.79656569  0.14964513  0.13973224    -0.11500
C2034       C  0.79793816  0.15324283  0.10016840     0.02500
H2035       H  0.87516433  0.16906320  0.06942160     0.15400
H2036       H  0.77706365  0.14929856  0.15940779     0.15400
C2037       C  0.77572942  0.16004743  0.08992516     0.37100
C2038       C  0.88502147  0.17414553  0.14019874     0.37000
N2039       N  0.75813622  0.16595027  0.08207386    -0.43200
N2040       N  0.91210916  0.18585522  0.14943855    -0.43200
C2041       C  0.82604631  0.15760301  0.52876365     0.30500
C2042       C  0.83163846  0.16363146  0.94902673     0.30500
C2043       C  0.84597347  0.14631155  0.50210622    -0.05700
C2044       C  0.79090373  0.13482593  0.51052227    -0.06500
C2045       C  0.84467718  0.19462914  0.51434247    -0.06400
C2046       C  0.84894107  0.14951738  0.96161552    -0.05700
C2047       C  0.79427098  0.13893002  0.96975431    -0.06500
C2048       C  0.84878350  0.19782284  0.97438413    -0.06400
C2049       C  0.86683340  0.13774878  0.94329769    -0.31700
N2050       N  0.87283430  0.12506256  0.96965696     0.14800
C2051       C  0.86001071  0.13016687  0.50624519    -0.31800
H2052       H  0.86031385  0.12161902  0.53254908     0.16700
C2053       C  0.76106649  0.11802505  0.95834150    -0.30700
N2054       N  0.73710220  0.09984543  0.49141109     0.13500
C2055       C  0.75515801  0.11005924  0.52203810    -0.30700
C2056       C  0.87064373  0.23348661  0.96858608    -0.31000
N2057       N  0.87590001  0.25115248  0.50239193     0.14000
H2058       H  0.88099006  0.24611829  0.94141582     0.16600
C2059       C  0.86144860  0.22814176  0.53078038    -0.31000
H2060       H  0.86325606  0.23531572  0.56093873     0.16600
H2061       H  0.74284788  0.10052661  0.55051463     0.16600
H2062       H  0.87503712  0.13848874  0.91298520     0.16700
H2063       H  0.75448257  0.11640489  0.93013101     0.16600
C2064       C  0.82627375  0.15706250  0.77790887     0.30500
C2065       C  0.82229979  0.15035465  0.69905960     0.30500
C2066       C  0.84206629  0.14072446  0.75284187    -0.05700
C2067       C  0.78879292  0.13432337  0.76477326    -0.06500
C2068       C  0.84575653  0.19188507  0.75663810    -0.06400
C2069       C  0.83855700  0.13597000  0.71352903    -0.05700
C2070       C  0.78675676  0.13072608  0.72515217    -0.06500
C2071       C  0.84345708  0.18764522  0.71719385    -0.06400
C2072       C  0.84985567  0.11710090  0.69784174    -0.31700
N2073       N  0.86240897  0.11266224  0.72545886     0.14800
C2074       C  0.85868192  0.12756331  0.75874169    -0.31800
H2075       H  0.86698973  0.12811141  0.78531138     0.16700
C2076       C  0.75125747  0.10881626  0.72025846    -0.30700
N2077       N  0.73197627  0.10017985  0.75507437     0.13500
C2078       C  0.75450877  0.11576717  0.78248160    -0.30700
C2079       C  0.86049201  0.21996833  0.70301061    -0.31000
N2080       N  0.87307152  0.24453028  0.73200298     0.14000
H2081       H  0.86259971  0.22512015  0.67354964     0.16600
C2082       C  0.86480912  0.22797063  0.76483989    -0.31000
H2083       H  0.87119155  0.24120350  0.79256220     0.16600
H2084       H  0.74656954  0.11419000  0.81294195     0.16600
H2085       H  0.84936004  0.10752702  0.66849874     0.16700
H2086       H  0.73992319  0.10013230  0.69343907     0.16600
O2087       O  0.53356109  0.44990659  0.88109599    -0.74800
O2088       O  0.53268788  0.45105057  0.94522844    -0.53700
C2089       C  0.53979393  0.44336176  0.91099085     0.78900
O2090       O  0.56229050  0.10940394  0.88674519    -0.59400
O2091       O  0.01345087  0.08525018  0.86157929    -0.52400
C2092       C  0.54369745  0.11118593  0.86724667     0.70900
O2093       O  0.60079192  0.06668220  0.94787010    -0.74000
O2094       O  0.57126754  0.01574468  0.97984833    -0.54500
C2095       C  0.59928824  0.04625496  0.96876974     0.76900
O2096       O  0.49905783  0.49586291  0.81687961    -0.59100
O2097       O  0.95488656  0.99443042  0.82550652    -0.52200
C2098       C  0.96837403  0.98029698  0.80952546     0.73500
Zr2099     Zr  0.50711771  0.47511701  0.86650726     2.54700
O2100       O  0.55039647  0.98067791  0.81189512    -0.79700
O2101       O  0.96988661  0.41625155  0.83248685    -0.93100
Zr2102     Zr  0.56051453  0.06570751  0.91539251     2.64700
O2103       O  0.60434406  0.07996876  0.86094506    -0.98000
O2104       O  0.60257189  0.12307605  0.94620381    -0.80100
O2105       O  0.54521222  0.00866190  0.91071440    -0.83500
O2106       O  0.52420599  0.03065191  0.86661445    -2.18200
O2107       O  0.88349729  0.43581606  0.89623689    -0.66800
O2108       O  0.90976199  0.49020658  0.87441878    -0.51400
C2109       C  0.88369538  0.45715639  0.87862532     0.71900
O2110       O  0.97282688  0.99845312  0.53242208    -0.59800
O2111       O  0.49907166  0.48233873  0.53935484    -0.51700
C2112       C  0.99347345  0.50301382  0.54675634     0.73700
O2113       O  0.94911963  0.05735464  0.97489492    -0.71100
O2114       O  0.94800979  0.05469121  0.91078551    -0.49800
C2115       C  0.94206492  0.06321008  0.94512093     0.75100
O2116       O  0.91391216  0.39448018  0.97204574    -0.66500
O2117       O  0.96714905  0.41863422  0.99158691    -0.53700
C2118       C  0.93440283  0.39272979  0.98796204     0.73500
Zr2119     Zr  0.91956208  0.43857864  0.93817788     2.77500
O2120       O  0.87284063  0.42540178  0.98837645    -0.97200
O2121       O  0.87851024  0.38020690  0.90863098    -0.78000
Zr2122     Zr  0.97777860  0.03468405  0.99073942     2.70100
O2123       O  0.94537127  0.54155651  0.54777568    -0.79300
O2124       O  0.52399175  0.09323350  0.51877039    -0.98400
Zr2125     Zr  0.50892347  0.48109268  0.97055706     2.21500
Zr2126     Zr  0.97206395  0.02499756  0.88572275     2.11100
O2127       O  0.93557432  0.49634947  0.94479850    -2.47100
O2128       O  0.95591059  0.47445417  0.98652265    -0.79100
O2129       O  0.95507346  0.46828654  0.88247639    -0.71300
O2130       O  0.52864651  0.03842722  0.97367364    -2.32200
O2131       O  0.97087721  0.44239712  0.92105207    -2.28400
O2132       O  0.50937382  0.06181004  0.93145912    -0.73000
H2133       H  0.53834320  0.04495491  0.84448195     0.79000
H2134       H  0.54595824  0.05359601  0.49446636     0.80000
H2135       H  0.91426875  0.49395421  0.94948881     0.82300
H2136       H  0.96502926  0.41944710  0.91849620     0.79900
H2137       H  0.59411610  0.11947867  0.97377925     0.42900
H2138       H  0.53291144  0.10985657  0.49837062     0.41900
H2139       H  0.92021484  0.52360557  0.54299077     0.41600
H2140       H  0.85543772  0.39927690  0.98819544     0.39500
H2141       H  0.89012830  0.38176329  0.88249024     0.42600
H2142       H  0.94876209  0.40112222  0.85091629     0.37400
H2143       H  0.57353550  0.00132319  0.82043518     0.43500
H2144       H  0.62687817  0.10202840  0.86908717     0.39900
H2145       H  0.88380541  0.43209697  0.01235723     0.44900
H2146       H  0.98277600  0.40679629  0.83080469     0.43600
H2147       H  0.60719952  0.06172115  0.86022001     0.43700
H2148       H  0.01631170  0.10303127  0.53691285     0.44100
O2149       O  0.55883434  0.47627452  0.62800876    -0.74800
O2150       O  0.53744370  0.45500031  0.68748128    -0.53700
C2151       C  0.55478701  0.45843285  0.65496927     0.78900
O2152       O  0.56097216  0.12116421  0.67814059    -0.59400
O2153       O  0.02045974  0.10078542  0.63738754    -0.52400
C2154       C  0.54746225  0.12539899  0.65372887     0.70900
O2155       O  0.59131724  0.06655652  0.73070915    -0.74000
O2156       O  0.56348097  0.00922172  0.74233747    -0.54500
C2157       C  0.59040546  0.04252986  0.74299681     0.76900
O2158       O  0.54527274  0.54527906  0.57077601    -0.59100
O2159       O  0.01246720  0.05758709  0.57839696    -0.52200
C2160       C  0.02405855  0.04143418  0.56320914     0.73500
Zr2161     Zr  0.53892311  0.50946552  0.61730588     2.54700
O2162       O  0.60648509  0.05793293  0.61634974    -0.79700
O2163       O  0.05562746  0.49201856  0.55662326    -0.93100
Zr2164     Zr  0.55331254  0.07250828  0.70354617     2.64700
O2165       O  0.61444437  0.12258758  0.68329210    -0.98000
O2166       O  0.55812728  0.10365296  0.76473208    -0.80100
O2167       O  0.55627895  0.02686200  0.67752156    -0.83500
O2168       O  0.54065118  0.05684970  0.63998164    -2.18200
O2169       O  0.89868010  0.44713004  0.61628044    -0.66800
O2170       O  0.92448420  0.50476915  0.61109582    -0.51400
C2171       C  0.89838712  0.47146412  0.60745818     0.71900
O2172       O  0.92965864  0.94926850  0.76350700    -0.59800
O2173       O  0.46661789  0.44276329  0.77047551    -0.51700
C2174       C  0.95090419  0.45413497  0.78260021     0.73700
O2175       O  0.91780052  0.02380925  0.72442800    -0.71100
O2176       O  0.94953183  0.05713012  0.67194937    -0.49800
C2177       C  0.92590257  0.04621138  0.70084464     0.75100
O2178       O  0.92369314  0.39370719  0.67854575    -0.66500
O2179       O  0.96846631  0.41219955  0.71200530    -0.53700
C2180       C  0.93864913  0.38778839  0.69884680     0.73500
Zr2181     Zr  0.93560005  0.44328141  0.64932027     2.77500
O2182       O  0.87335891  0.39626956  0.67108199    -0.97200
O2183       O  0.93234703  0.41206840  0.58878923    -0.78000
Zr2184     Zr  0.94886403  0.00411525  0.74060475     2.70100
O2185       O  0.89527778  0.48176790  0.78508888    -0.79300
O2186       O  0.47563738  0.04854577  0.79126849    -0.98400
Zr2187     Zr  0.50547442  0.47545495  0.71524476     2.21500
Zr2188     Zr  0.98247759  0.03792187  0.64121588     2.11100
O2189       O  0.93328242  0.48908913  0.67737036    -2.47100
O2190       O  0.94917034  0.46050752  0.71212095    -0.79100
O2191       O  0.98407026  0.49473078  0.62354067    -0.71300
O2192       O  0.50920234  0.02247702  0.74010477    -2.34000
O2193       O  0.99287031  0.45944654  0.64886645    -2.28400
O2194       O  0.49592728  0.05531366  0.70314792    -0.73000
H2195       H  0.55835355  0.07842006  0.62648410     0.79000
H2196       H  0.51700780  0.02978774  0.76492695     0.80000
H2197       H  0.91022509  0.48258234  0.67755189     0.82300
H2198       H  0.99230326  0.43976938  0.63948509     0.79900
H2199       H  0.56051850  0.09194257  0.78297848     0.42900
H2200       H  0.48889400  0.07145041  0.77909931     0.41900
H2201       H  0.87595804  0.46156919  0.77057589     0.41600
H2202       H  0.86347353  0.40848156  0.68099637     0.39500
H2203       H  0.95093629  0.40968772  0.58781473     0.42600
H2204       H  0.04182792  0.46628850  0.55896340     0.37400
H2205       H  0.61645498  0.04573395  0.61654170     0.43500
H2206       H  0.62492088  0.13534225  0.70731576     0.39900
H2207       H  0.86202250  0.38353004  0.64744819     0.44900
H2208       H  0.08064081  0.50236692  0.55674099     0.43600
H2209       H  0.62613952  0.11217710  0.67324028     0.43700
H2210       H  0.94847508  0.04192229  0.80916349     0.44100
C2211       C  0.65520481  0.34860995  0.82373887     0.30500
C2212       C  0.65068549  0.34349492  0.90266668     0.30500
C2213       C  0.64283872  0.36709053  0.85055202    -0.05700
C2214       C  0.62944612  0.31053924  0.83957736    -0.06500
C2215       C  0.68933029  0.36268642  0.83994308    -0.06400
C2216       C  0.64004738  0.36405631  0.88999946    -0.05700
C2217       C  0.62669949  0.30809930  0.87953821    -0.06500
C2218       C  0.68681819  0.36063781  0.87947204    -0.06400
C2219       C  0.61879555  0.37235258  0.90716183    -0.31700
N2220       N  0.61046399  0.38243100  0.88026496     0.14800
C2221       C  0.62501758  0.37914478  0.84558269    -0.31800
H2222       H  0.62240410  0.38433248  0.81837892     0.16700
C2223       C  0.60632606  0.27270730  0.88659395    -0.30700
N2224       N  0.59849131  0.25383646  0.85292177     0.13500
C2225       C  0.61288881  0.27652375  0.82409346    -0.30700
C2226       C  0.71984884  0.37608962  0.88857358    -0.31000
N2227       N  0.74227902  0.38700286  0.85599575     0.14000
H2228       H  0.72737673  0.38000145  0.91691217     0.16600
C2229       C  0.72402546  0.37806098  0.82598204    -0.31000
H2230       H  0.73560996  0.38357845  0.79655375     0.16600
H2231       H  0.61367936  0.26914867  0.79407704     0.16600
H2232       H  0.60858174  0.36951710  0.93706112     0.16700
H2233       H  0.59963221  0.26143161  0.91399636     0.16600
C2234       C  0.66252275  0.35436393  0.57401309     0.30500
C2235       C  0.66567680  0.36120821  0.65299285     0.30500
C2236       C  0.63801312  0.36047352  0.59926520    -0.05700
C2237       C  0.65240493  0.32211718  0.59350740    -0.06500
C2238       C  0.69928099  0.38495898  0.58846440    -0.06400
C2239       C  0.64026920  0.36461865  0.63851016    -0.05700
C2240       C  0.65607617  0.32687027  0.63267682    -0.06500
C2241       C  0.70088184  0.38860502  0.62864851    -0.06400
C2242       C  0.62502397  0.37983736  0.65373848    -0.31700
N2243       N  0.61153361  0.38321109  0.62581559     0.14800
C2244       C  0.61850545  0.37020526  0.59264998    -0.31800
H2245       H  0.61117467  0.36871474  0.56514019     0.16700
C2246       C  0.64282101  0.29529614  0.64601968    -0.30700
N2247       N  0.62681667  0.26998016  0.61826427     0.13500
C2248       C  0.63166519  0.28581452  0.58635696    -0.30700
C2249       C  0.73582647  0.40581537  0.63350158    -0.31000
N2250       N  0.75539944  0.41396857  0.59899880     0.14000
H2251       H  0.74588936  0.40883660  0.65981078     0.16600
C2252       C  0.73341400  0.40040096  0.57144205    -0.31000
H2253       H  0.74105610  0.39902864  0.54128121     0.16600
H2254       H  0.61809440  0.27160692  0.56129166     0.16600
H2255       H  0.62633235  0.39019963  0.68280562     0.16700
H2256       H  0.64215434  0.29049915  0.67510213     0.16600
C2257       C  0.66211413  0.36055417  0.69811461     0.00300
C2258       C  0.68919345  0.38784366  0.72036051    -0.11500
C2259       C  0.68664017  0.38550282  0.76052472     0.02600
C2260       C  0.65807619  0.35377420  0.77984780     0.00300
C2261       C  0.62922412  0.32870918  0.75856101    -0.11500
C2262       C  0.63037040  0.33253444  0.71932490     0.02500
H2263       H  0.71167067  0.41217124  0.70703548     0.15400
H2264       H  0.60466628  0.30659765  0.77297641     0.15400
C2265       C  0.59771604  0.30763735  0.70198705     0.37100
C2266       C  0.71253261  0.41730231  0.78132835     0.37000
N2267       N  0.57150634  0.28776180  0.68817046    -0.43200
N2268       N  0.73332121  0.44293384  0.79786624    -0.43200
C2269       C  0.65285836  0.34467803  0.94695105     0.00300
C2270       C  0.66138143  0.37458877  0.96995650    -0.11500
C2271       C  0.66725514  0.37922453  0.00890524     0.02600
C2272       C  0.66170276  0.35286820  0.52935117     0.00300
C2273       C  0.65781477  0.32485085  0.00436429    -0.11500
C2274       C  0.65544340  0.32203390  0.96442347     0.02500
H2275       H  0.66617772  0.39612616  0.95685681     0.15400
H2276       H  0.65999782  0.30717297  0.01585547     0.15400
C2277       C  0.66057192  0.29869822  0.94182827     0.37100
C2278       C  0.68099371  0.41362573  0.52992885     0.37000
N2279       N  0.66540806  0.28031179  0.92416180    -0.43200
N2280       N  0.69250267  0.44066543  0.54545519    -0.43200
C2281       C  0.60397708  0.23265502  0.62510984     0.00300
C2282       C  0.58492431  0.22064976  0.66153223    -0.11500
C2283       C  0.56603854  0.18572800  0.67129005     0.02600
C2284       C  0.56500902  0.16170074  0.64402011     0.00300
C2285       C  0.58220756  0.17278637  0.60704682    -0.11500
C2286       C  0.60192835  0.20805965  0.59746392     0.02500
H2287       H  0.58517810  0.23873592  0.68283003     0.15400
H2288       H  0.58130878  0.15409850  0.58604879     0.15400
C2289       C  0.62112646  0.21846472  0.55987136     0.37100
C2290       C  0.54779728  0.17507605  0.70934501     0.37000
N2291       N  0.63634181  0.22661490  0.52960207    -0.43200
N2292       N  0.02967109  0.16666320  0.73749969    -0.43200
C2293       C  0.79227602  0.42945753  0.59352113     0.00300
C2294       C  0.81806733  0.46576477  0.60081482    -0.11500
C2295       C  0.85362575  0.48098788  0.60208721     0.02600
C2296       C  0.86397099  0.45942092  0.59641862     0.00300
C2297       C  0.83806851  0.42325987  0.58670883    -0.11500
C2298       C  0.80263486  0.40829861  0.58546945     0.02500
H2299       H  0.80997093  0.48200929  0.60708892     0.15400
H2300       H  0.84498995  0.40602168  0.58214805     0.15400
C2301       C  0.77668534  0.37066321  0.57881561     0.37100
C2302       C  0.88225888  0.01837946  0.61206430     0.37000
N2303       N  0.75577083  0.34045180  0.57368127    -0.43200
N2304       N  0.90127870  0.04833526  0.61974838    -0.43200
C2305       C  0.56978976  0.43941389  0.64793390     0.00300
C2306       C  0.58343644  0.43707494  0.61072723    -0.11500
C2307       C  0.59655992  0.41838817  0.60214405     0.02600
C2308       C  0.59589018  0.40072128  0.63139265     0.00300
C2309       C  0.58125244  0.40239360  0.66836671    -0.11500
C2310       C  0.56919909  0.42189642  0.67711129     0.02500
H2311       H  0.58389277  0.44996917  0.58786920     0.15400
H2312       H  0.57942084  0.38855380  0.69114558     0.15400
C2313       C  0.55744344  0.42390683  0.71678754     0.37100
C2314       C  0.61046074  0.41881221  0.56294281     0.37000
N2315       N  0.54831145  0.42558284  0.74863751    -0.43200
N2316       N  0.62074007  0.41959410  0.53098521    -0.43200
C2317       C  0.55920734  0.14744099  0.85601868     0.00300
C2318       C  0.53653757  0.15428061  0.84971389    -0.11500
C2319       C  0.54945636  0.18913014  0.84637001     0.02600
C2320       C  0.58551439  0.21784222  0.84899032     0.00300
C2321       C  0.60854833  0.21112609  0.85250600    -0.11500
C2322       C  0.59602121  0.17664503  0.85596834     0.02500
H2323       H  0.50837853  0.13266831  0.84945189     0.15400
H2324       H  0.63638734  0.23330017  0.85420594     0.15400
C2325       C  0.62185136  0.17277172  0.86096100     0.37100
C2326       C  0.52525629  0.19528892  0.84192256     0.37000
N2327       N  0.64288696  0.17025321  0.86535473    -0.43200
N2328       N  0.50611883  0.20056507  0.83819340    -0.43200
C2329       C  0.85038806  0.44273160  0.86470595     0.00300
C2330       C  0.83470267  0.45825089  0.87919391    -0.11500
C2331       C  0.79943788  0.44091115  0.87470739     0.02600
C2332       C  0.77978004  0.40797362  0.85480691     0.00300
C2333       C  0.79638569  0.39405033  0.83716352    -0.11500
C2334       C  0.83162070  0.41113665  0.84217226     0.02500
H2335       H  0.84918958  0.48265357  0.89633974     0.15400
H2336       H  0.78121184  0.36894466  0.82137520     0.15400
C2337       C  0.84782305  0.39571098  0.82438905     0.37100
C2338       C  0.78329090  0.45642016  0.89227847     0.37000
N2339       N  0.86074854  0.38337183  0.80981065    -0.43200
N2340       N  0.77021285  0.46868350  0.90653286    -0.43200
C2341       C  0.55633550  0.42591565  0.90500609     0.00300
C2342       C  0.55192122  0.40555898  0.87115407    -0.11500
C2343       C  0.56813218  0.38984252  0.86304810     0.02600
C2344       C  0.59076152  0.39557866  0.88835233     0.00300
C2345       C  0.59427289  0.41499586  0.92267236    -0.11500
C2346       C  0.57691147  0.42942477  0.93156071     0.02500
H2347       H  0.53517143  0.40134347  0.85105271     0.15400
H2348       H  0.61122611  0.41945957  0.94262924     0.15400
C2349       C  0.58140100  0.44790828  0.96806194     0.37100
C2350       C  0.55948744  0.36667737  0.82957060     0.37000
N2351       N  0.58518975  0.46227689  0.99765553    -0.43200
N2352       N  0.55227777  0.34805354  0.80271362    -0.43200
C2353       C  0.87798049  0.09571096  0.72006375     0.00300
C2354       C  0.85616578  0.05869398  0.71911202    -0.11500
C2355       C  0.87103238  0.04165321  0.71367373     0.02600
C2356       C  0.90825444  0.06203659  0.70813424     0.00300
C2357       C  0.92984021  0.09902188  0.70894102    -0.11500
C2358       C  0.91498357  0.11589857  0.71539256     0.02500
H2359       H  0.82761536  0.04328468  0.72272197     0.15400
H2360       H  0.95845975  0.11478845  0.70495478     0.15400
C2361       C  0.93810863  0.15398518  0.71712952     0.37100
C2362       C  0.84775968  0.00349209  0.71244117     0.37000
N2363       N  0.95681708  0.18455338  0.71873555    -0.43200
N2364       N  0.83054221  0.48019766  0.73199276    -0.43200
C2365       C  0.88793084  0.28059217  0.72749923     0.00300
C2366       C  0.87362339  0.28687741  0.70217574    -0.11500
C2367       C  0.88947330  0.32097385  0.69206329     0.02600
C2368       C  0.92026575  0.35052267  0.70843169     0.00300
C2369       C  0.93369026  0.34422621  0.73526292    -0.11500
C2370       C  0.91793707  0.30978588  0.74480581     0.02500
H2371       H  0.85007376  0.26465461  0.68933789     0.15400
H2372       H  0.95691458  0.36626255  0.74871229     0.15400
C2373       C  0.93383539  0.30538862  0.77144104     0.37100
C2374       C  0.87383835  0.32391055  0.66357528     0.37000
N2375       N  0.94668649  0.30226988  0.79311351    -0.43200
N2376       N  0.86093648  0.32545558  0.64048611    -0.43200
C2377       C  0.69458801  0.08257451  0.76082139     0.00300
C2378       C  0.68343389  0.10244889  0.77419700    -0.11500
C2379       C  0.64890302  0.08916149  0.77093322     0.02600
C2380       C  0.62409456  0.05451314  0.75547861     0.00300
C2381       C  0.63458603  0.03349950  0.74538613    -0.11500
C2382       C  0.66970753  0.04754840  0.74721423     0.02500
H2383       H  0.70269830  0.12954394  0.78423685     0.15400
H2384       H  0.61625747  0.00710652  0.73307213     0.15400
C2385       C  0.68045501  0.02646379  0.73299495     0.37100
C2386       C  0.64068611  0.11279502  0.78094410     0.37000
N2387       N  0.68936129  0.00980634  0.72146802    -0.43200
N2388       N  0.63429297  0.13193241  0.78826677    -0.43200
C2389       C  0.89063621  0.11005061  0.96225515     0.00300
C2390       C  0.91562908  0.11995779  0.98633179    -0.11500
C2391       C  0.93319733  0.10572619  0.98079202     0.02600
C2392       C  0.92537862  0.08033114  0.95093558     0.00300
C2393       C  0.90075769  0.07081566  0.92637333    -0.11500
C2394       C  0.88342961  0.08537978  0.93173343     0.02500
H2395       H  0.92187504  0.13945774  0.00925857     0.15400
H2396       H  0.89446337  0.05137703  0.90333841     0.15400
C2397       C  0.85753615  0.07357612  0.90634498     0.37100
C2398       C  0.96031751  0.11904892  0.00511199     0.37000
N2399       N  0.83698236  0.06431972  0.88579446    -0.43200
N2400       N  0.46424214  0.11468243  0.03779596    -0.43200
C2401       C  0.92073652  0.35775998  0.99935001     0.00300
C2402       C  0.94249412  0.34816612  0.98855316    -0.11500
C2403       C  0.92925304  0.31352620  0.99198845     0.02600
C2404       C  0.89401681  0.28799730  0.00752035     0.00300
C2405       C  0.87217786  0.29872879  0.51892941    -0.11500
C2406       C  0.88624756  0.33375410  0.51525206     0.02500
H2407       H  0.96926135  0.36718511  0.97503596     0.15400
H2408       H  0.84456227  0.27917399  0.52965420     0.15400
C2409       C  0.86405453  0.34350932  0.52850973     0.37100
C2410       C  0.95165884  0.30420699  0.97765386     0.37000
N2411       N  0.84637632  0.35142174  0.53943539    -0.43200
N2412       N  0.96973560  0.29688572  0.96601524    -0.43200
C2413       C  0.63278030  0.05793821  0.97888567     0.00300
C2414       C  0.64591299  0.04083795  0.96043003    -0.11500
C2415       C  0.67966223  0.05338665  0.96546766     0.02600
C2416       C  0.70040999  0.08320710  0.98962335     0.00300
C2417       C  0.68511352  0.09552817  0.51466328    -0.11500
C2418       C  0.65187763  0.08407484  0.50870452     0.02500
H2419       H  0.63043670  0.01870224  0.94065118     0.15400
H2420       H  0.70064011  0.11740116  0.53464681     0.15400
C2421       C  0.63849423  0.10120490  0.52996695     0.37100
C2422       C  0.69299021  0.03605968  0.94474594     0.37000
N2423       N  0.62788994  0.11510893  0.54682544    -0.43200
N2424       N  0.70344068  0.02196636  0.92804351    -0.43200
C2425       C  0.83117875  0.16379839  0.90464995     0.00300
C2426       C  0.82282456  0.13405738  0.88162330    -0.11500
C2427       C  0.81878176  0.13037886  0.84225117     0.02600
C2428       C  0.82674196  0.15847513  0.82251032     0.00300
C2429       C  0.82977140  0.18550525  0.84638684    -0.11500
C2430       C  0.83011154  0.18731543  0.88661950     0.02500
H2431       H  0.81679000  0.11202010  0.89510301     0.15400
H2432       H  0.82827669  0.20346559  0.83435971     0.15400
C2433       C  0.82322657  0.20963306  0.90841352     0.37100
C2434       C  0.80241844  0.09576075  0.82433437     0.37000
N2435       N  0.81708396  0.22732143  0.92523239    -0.43200
N2436       N  0.78907072  0.06787604  0.81021477    -0.43200
C2437       C  0.82456162  0.15607439  0.57319286     0.00300
C2438       C  0.85272686  0.16214098  0.58848353    -0.11500
C2439       C  0.85266877  0.16069533  0.62805487     0.02600
C2440       C  0.82276767  0.15071392  0.65463674     0.00300
C2441       C  0.79757692  0.15045796  0.64012594    -0.11500
C2442       C  0.79895047  0.15432135  0.60077555     0.02500
H2443       H  0.87639401  0.17055198  0.56977537     0.15400
H2444       H  0.77817719  0.15017658  0.65993141     0.15400
C2445       C  0.77644510  0.16081274  0.59067577     0.37100
C2446       C  0.88562490  0.17376778  0.64052704     0.37000
N2447       N  0.75850207  0.16629714  0.58288590    -0.43200
N2448       N  0.91230036  0.18465755  0.65022653    -0.43200
C2449       C  0.82369794  0.65696207  0.03192965     0.30500
C2450       C  0.82971175  0.66490110  0.45295390     0.30500
C2451       C  0.84296957  0.64503298  0.00478938    -0.05700
C2452       C  0.78845749  0.63490434  0.01411660    -0.06500
C2453       C  0.84291392  0.69413888  0.01762747    -0.06400
C2454       C  0.84598923  0.64956837  0.46549515    -0.05700
C2455       C  0.79273187  0.64203489  0.47487416    -0.06500
C2456       C  0.84857991  0.69982793  0.47731226    -0.06400
C2457       C  0.86300017  0.63674011  0.44728053    -0.31700
N2458       N  0.86941214  0.62454425  0.47382781     0.14800
C2459       C  0.85729545  0.62896218  0.00820102    -0.31800
H2460       H  0.85779406  0.62032254  0.03430409     0.16700
C2461       C  0.75926690  0.62234801  0.46463444    -0.30700
N2462       N  0.73446722  0.60130377  0.99603184     0.13500
C2463       C  0.75275561  0.61114375  0.02628789    -0.30700
C2464       C  0.86903113  0.73531188  0.47096233    -0.31000
N2465       N  0.87482195  0.75079836  0.00602955     0.14000
H2466       H  0.87786403  0.74743812  0.44365161     0.16600
C2467       C  0.86033545  0.72763693  0.03422676    -0.31000
H2468       H  0.86233127  0.73466891  0.06439860     0.16600
H2469       H  0.74066830  0.60212572  0.05496262     0.16600
H2470       H  0.87071667  0.63678848  0.41691465     0.16700
H2471       H  0.75218505  0.62031988  0.43658208     0.16600
C2472       C  0.82271706  0.65655481  0.28190617     0.30500
C2473       C  0.81942490  0.65094096  0.20288075     0.30500
C2474       C  0.83784044  0.63966204  0.25677354    -0.05700
C2475       C  0.78549024  0.63481693  0.26847260    -0.06500
C2476       C  0.84320613  0.69163661  0.26096022    -0.06400
C2477       C  0.83480204  0.63555639  0.21736148    -0.05700
C2478       C  0.78374562  0.63170531  0.22878822    -0.06500
C2479       C  0.84105237  0.68816445  0.22144121    -0.06400
C2480       C  0.84670232  0.61724818  0.20140018    -0.31700
N2481       N  0.85908155  0.61253115  0.22896759     0.14800
C2482       C  0.85459248  0.62660367  0.26251756    -0.31800
H2483       H  0.86296940  0.62714473  0.28902919     0.16700
C2484       C  0.74830714  0.61034174  0.22370294    -0.30700
N2485       N  0.72887394  0.60150890  0.25845344     0.13500
C2486       C  0.75118987  0.61647596  0.28599136    -0.30700
C2487       C  0.85920816  0.72116374  0.20799996    -0.31000
N2488       N  0.87295058  0.74492618  0.23750708     0.14000
H2489       H  0.86151160  0.72748113  0.17901365     0.16600
C2490       C  0.86385411  0.72764104  0.26987309    -0.31000
H2491       H  0.87136222  0.74055316  0.29762292     0.16600
H2492       H  0.74306957  0.61444382  0.31642544     0.16600
H2493       H  0.84693100  0.60840407  0.17185542     0.16700
H2494       H  0.73714408  0.60205877  0.19681012     0.16600
O2495       O  0.53881352  0.95299197  0.37989217    -0.74800
O2496       O  0.53540911  0.95072355  0.44391480    -0.53700
C2497       C  0.54450472  0.94545136  0.40944852     0.78900
O2498       O  0.56266488  0.61171836  0.38935938    -0.59400
O2499       O  0.01380923  0.58710941  0.36225827    -0.52400
C2500       C  0.54381898  0.61344144  0.37014109     0.70900
O2501       O  0.59894209  0.56807598  0.45347586    -0.74000
O2502       O  0.56897055  0.51683422  0.48507650    -0.54500
C2503       C  0.59710800  0.54753855  0.47456896     0.76900
O2504       O  0.50026186  0.99643613  0.31749571    -0.59100
O2505       O  0.95388934  0.49634584  0.32663951    -0.52200
C2506       C  0.96901579  0.48383058  0.31093311     0.73500
Zr2507     Zr  0.50788336  0.97347351  0.36515202     2.54700
O2508       O  0.54755813  0.47986798  0.31451059    -0.79700
O2509       O  0.97014069  0.91685170  0.33293480    -0.93100
Zr2510     Zr  0.55951108  0.56756156  0.41981466     2.64700
O2511       O  0.60670285  0.58494222  0.36848804    -0.98000
O2512       O  0.59753898  0.62460392  0.45315575    -0.80100
O2513       O  0.54361011  0.51008275  0.41452809    -0.83500
O2514       O  0.52390117  0.53252311  0.37027885    -2.18200
O2515       O  0.88582769  0.93919728  0.39983639    -0.66800
O2516       O  0.91274834  0.99222251  0.37398693    -0.51400
C2517       C  0.88628036  0.95950778  0.37995431     0.71900
O2518       O  0.96343696  0.49207082  0.03408490    -0.59800
O2519       O  0.50578531  0.98483601  0.03517490    -0.51700
C2520       C  0.99498907  0.00220071  0.04548341     0.73700
O2521       O  0.94765048  0.55821373  0.47697142    -0.71100
O2522       O  0.94787288  0.55726636  0.41283536    -0.49800
C2523       C  0.94110089  0.56482459  0.44738660     0.75100
O2524       O  0.91615462  0.89892620  0.47573189    -0.66500
O2525       O  0.96976650  0.92157075  0.49260281    -0.53700
C2526       C  0.93646315  0.89636826  0.49069445     0.73500
Zr2527     Zr  0.92305878  0.94294511  0.44076607     2.77500
O2528       O  0.87810220  0.93265144  0.49199338    -0.97200
O2529       O  0.88100240  0.88473416  0.41164839    -0.78000
Zr2530     Zr  0.97714033  0.53599809  0.49142205     2.70100
O2531       O  0.94435478  0.03848970  0.04657908    -0.79300
O2532       O  0.52611183  0.59542498  0.01743742    -0.98400
Zr2533     Zr  0.51054697  0.97972424  0.46906576     2.21500
Zr2534     Zr  0.97155791  0.52709008  0.38676173     2.11100
O2535       O  0.94063159  0.00115812  0.44575335    -2.47100
O2536       O  0.96115020  0.97926190  0.48772917    -0.79100
O2537       O  0.95738257  0.97038726  0.38369372    -0.71300
O2538       O  0.52688785  0.53931488  0.47773344    -2.32200
O2539       O  0.97306344  0.94462368  0.42214099    -2.28400
O2540       O  0.50839553  0.56354608  0.43573541    -0.73000
H2541       H  0.53793902  0.54640288  0.34786735     0.79000
H2542       H  0.54461262  0.55468668  0.99588693     0.80000
H2543       H  0.91951320  0.99907094  0.45088132     0.82300
H2544       H  0.96643457  0.92133438  0.42020666     0.79900
H2545       H  0.62198106  0.63466655  0.44219581     0.42900
H2546       H  0.53666364  0.61126967  0.99577295     0.41900
H2547       H  0.91961319  0.02181915  0.04015012     0.41600
H2548       H  0.89159018  0.95222164  0.51090435     0.39500
H2549       H  0.89506359  0.88348108  0.38908893     0.42600
H2550       H  0.95442611  0.89987650  0.35353247     0.37400
H2551       H  0.57113693  0.50011682  0.32248437     0.43500
H2552       H  0.62885727  0.60394819  0.38000908     0.39900
H2553       H  0.86488892  0.93802627  0.48102601     0.44900
H2554       H  0.98597983  0.91123266  0.32205597     0.43600
H2555       H  0.60679524  0.56467598  0.36445437     0.43700
H2556       H  0.00930994  0.59800104  0.03663906     0.44100
O2557       O  0.56164500  0.97602752  0.12642764    -0.74800
O2558       O  0.54216184  0.95651149  0.18669642    -0.53700
C2559       C  0.55840490  0.95893588  0.15362534     0.78900
O2560       O  0.56164401  0.62309477  0.17821317    -0.59400
O2561       O  0.01811455  0.60082499  0.13708911    -0.52400
C2562       C  0.54823678  0.62739346  0.15373920     0.70900
O2563       O  0.58890873  0.56747810  0.23415346    -0.74000
O2564       O  0.55990470  0.51036563  0.24812438    -0.54500
C2565       C  0.58728968  0.54345863  0.24766728     0.76900
O2566       O  0.54904765  0.04685852  0.07037764    -0.59100
O2567       O  0.00430440  0.55265783  0.07707938    -0.52200
C2568       C  0.01519596  0.53571453  0.06281859     0.73500
Zr2569     Zr  0.54304741  0.01012398  0.11578343     2.54700
O2570       O  0.60496736  0.56106544  0.12026213    -0.79700
O2571       O  0.05096038  0.98312318  0.05681903    -0.93100
Zr2572     Zr  0.55160349  0.57457188  0.20749034     2.64700
O2573       O  0.61318206  0.62697010  0.19423065    -0.98000
O2574       O  0.55301364  0.60458950  0.26848121    -0.80100
O2575       O  0.55398321  0.52843088  0.18198473    -0.83500
O2576       O  0.53994729  0.55921922  0.14351700    -2.18200
O2577       O  0.90134952  0.94575670  0.11566601    -0.66800
O2578       O  0.92730600  0.00350314  0.11030937    -0.51400
C2579       C  0.90140228  0.97023042  0.10637376     0.71900
O2580       O  0.93277539  0.45230653  0.26294277    -0.59800
O2581       O  0.47053384  0.94389137  0.26994806    -0.51700
C2582       C  0.95365041  0.95526781  0.28390299     0.73700
O2583       O  0.91891511  0.52764704  0.22790298    -0.71100
O2584       O  0.94821119  0.55883574  0.17372324    -0.49800
C2585       C  0.92587935  0.54912324  0.20373040     0.75100
O2586       O  0.92374641  0.89213669  0.18406259    -0.66500
O2587       O  0.97036123  0.91199586  0.21544547    -0.53700
C2588       C  0.93963519  0.88734804  0.20444187     0.73500
Zr2589     Zr  0.93627556  0.94058950  0.15114852     2.77500
O2590       O  0.87326869  0.89585305  0.17074739    -0.97200
O2591       O  0.93321864  0.90630994  0.09336774    -0.78000
Zr2592     Zr  0.94949784  0.50672776  0.24216649     2.70100
O2593       O  0.90002737  0.98395811  0.28688577    -0.79300
O2594       O  0.47428235  0.55169448  0.29427106    -0.98400
Zr2595     Zr  0.50890821  0.97589082  0.21412036     2.21500
Zr2596     Zr  0.97942522  0.53788207  0.14185015     2.11100
O2597       O  0.93593173  0.98804588  0.17735732    -2.47100
O2598       O  0.95165742  0.95995222  0.21305349    -0.79100
O2599       O  0.98339606  0.99020423  0.11694196    -0.71300
O2600       O  0.50728859  0.52466503  0.24423771    -2.34000
O2601       O  0.99415956  0.95773993  0.14987556    -2.28400
O2602       O  0.49465635  0.55784485  0.20630644    -0.73000
H2603       H  0.55791508  0.58033286  0.12941651     0.79000
H2604       H  0.51506109  0.53216335  0.26912477     0.80000
H2605       H  0.91291241  0.98161192  0.17731219     0.82300
H2606       H  0.99335248  0.93780508  0.14103613     0.79900
H2607       H  0.55765618  0.59483578  0.28676941     0.42900
H2608       H  0.48483361  0.57404749  0.28236971     0.41900
H2609       H  0.87959846  0.96551583  0.27252645     0.41600
H2610       H  0.86432286  0.90914852  0.17895054     0.39500
H2611       H  0.93895375  0.92101503  0.07224719     0.42600
H2612       H  0.03708234  0.95781477  0.06186369     0.37400
H2613       H  0.61464428  0.54989479  0.12646378     0.43500
H2614       H  0.62198011  0.63665486  0.21956713     0.39900
H2615       H  0.86260556  0.88297660  0.14683573     0.44900
H2616       H  0.07606258  0.99319429  0.05488040     0.43600
H2617       H  0.62576364  0.61788180  0.18212011     0.43700
H2618       H  0.95368285  0.54709823  0.31038370     0.44100
C2619       C  0.65914229  0.85045064  0.31918287     0.30500
C2620       C  0.65610676  0.84660003  0.39800006     0.30500
C2621       C  0.65054861  0.87219877  0.34591408    -0.05700
C2622       C  0.63103030  0.81282719  0.33640052    -0.06500
C2623       C  0.69282048  0.86192534  0.33414109    -0.06400
C2624       C  0.64846876  0.86977006  0.38549073    -0.05700
C2625       C  0.62913937  0.81125052  0.37637221    -0.06500
C2626       C  0.69102795  0.86041223  0.37361072    -0.06400
C2627       C  0.62695454  0.87776138  0.40272601    -0.31700
N2628       N  0.61806971  0.88744527  0.37606909     0.14800
C2629       C  0.63208568  0.88368589  0.34127579    -0.31800
H2630       H  0.62842076  0.88780180  0.31408442     0.16700
C2631       C  0.60753508  0.77598863  0.38475319    -0.30700
N2632       N  0.59790463  0.75596196  0.35186675     0.13500
C2633       C  0.61270552  0.77806569  0.32224214    -0.30700
C2634       C  0.72425287  0.87573843  0.38197327    -0.31000
N2635       N  0.74615207  0.88602983  0.34903745     0.14000
H2636       H  0.73247998  0.88086698  0.41018334     0.16600
C2637       C  0.72738503  0.87702238  0.31947046    -0.31000
H2638       H  0.73867847  0.88294306  0.28999998     0.16600
H2639       H  0.61294877  0.76975899  0.29249134     0.16600
H2640       H  0.61650044  0.87443636  0.43256803     0.16700
H2641       H  0.60183931  0.76558022  0.41244919     0.16600
C2642       C  0.66657297  0.85515400  0.06873289     0.30500
C2643       C  0.66985247  0.86211515  0.14791726     0.30500
C2644       C  0.64354887  0.86325755  0.09405199    -0.05700
C2645       C  0.65484782  0.82234527  0.08870447    -0.06500
C2646       C  0.70366798  0.88459551  0.08303687    -0.06400
C2647       C  0.64576406  0.86716425  0.13336550    -0.05700
C2648       C  0.65855686  0.82718901  0.12790365    -0.06500
C2649       C  0.70528082  0.88827704  0.12320977    -0.06400
C2650       C  0.63052190  0.88221889  0.14913546    -0.31700
N2651       N  0.61755681  0.88630626  0.12136837     0.14800
C2652       C  0.62464903  0.87384611  0.08777713    -0.31800
H2653       H  0.61758022  0.87326015  0.06039864     0.16700
C2654       C  0.64561960  0.79584816  0.14135250    -0.30700
N2655       N  0.63006715  0.77058340  0.11352751     0.13500
C2656       C  0.63497735  0.78611980  0.08134789    -0.30700
C2657       C  0.74008566  0.90528948  0.12815980    -0.31000
N2658       N  0.75960073  0.91321744  0.09364337     0.14000
H2659       H  0.75016598  0.90855167  0.15455007     0.16600
C2660       C  0.73772440  0.89982825  0.06598094    -0.31000
H2661       H  0.74544321  0.89872898  0.03578640     0.16600
H2662       H  0.62204234  0.77159313  0.05601891     0.16600
H2663       H  0.63100446  0.89163741  0.17854183     0.16700
H2664       H  0.64479211  0.79104324  0.17050790     0.16600
C2665       C  0.66637201  0.86168381  0.19311096     0.00300
C2666       C  0.69374671  0.88872749  0.21519932    -0.11500
C2667       C  0.69102512  0.88672592  0.25548167     0.02600
C2668       C  0.66189890  0.85545486  0.27519442     0.00300
C2669       C  0.63294036  0.83063599  0.25394891    -0.11500
C2670       C  0.63430506  0.83431027  0.21456854     0.02500
H2671       H  0.71661806  0.91270579  0.20164278     0.15400
H2672       H  0.60812398  0.80897032  0.26848768     0.15400
C2673       C  0.60153158  0.81007860  0.19733762     0.37100
C2674       C  0.71751646  0.91845853  0.27591266     0.37000
N2675       N  0.57522389  0.79083552  0.18359622    -0.43200
N2676       N  0.73886224  0.94411743  0.29197678    -0.43200
C2677       C  0.65900413  0.84774831  0.44206956     0.00300
C2678       C  0.66790472  0.87748121  0.46574708    -0.11500
C2679       C  0.67365523  0.88124265  0.50462248     0.02600
C2680       C  0.66558139  0.85358582  0.02400368     0.00300
C2681       C  0.66325917  0.82632911  0.49858136    -0.11500
C2682       C  0.66088734  0.82425859  0.45874999     0.02500
H2683       H  0.67302022  0.89946140  0.45332804     0.15400
H2684       H  0.66498341  0.80807975  0.50939046     0.15400
C2685       C  0.66498647  0.80051861  0.43529043     0.37100
C2686       C  0.68819964  0.91546542  0.02424250     0.37000
N2687       N  0.66902664  0.78189059  0.41672202    -0.43200
N2688       N  0.70180646  0.94292943  0.03955696    -0.43200
C2689       C  0.60668878  0.73348760  0.12097212     0.00300
C2690       C  0.58557213  0.72210339  0.15643320    -0.11500
C2691       C  0.56614045  0.68754175  0.16752094     0.02600
C2692       C  0.56680154  0.66335111  0.14246391     0.00300
C2693       C  0.58617968  0.67377921  0.10623208    -0.11500
C2694       C  0.60643312  0.70877871  0.09541467     0.02500
H2695       H  0.58486216  0.74054166  0.17604598     0.15400
H2696       H  0.58645630  0.65484051  0.08695952     0.15400
C2697       C  0.62816739  0.71899197  0.05915786     0.37100
C2698       C  0.54586873  0.67753554  0.20473054     0.37000
N2699       N  0.64553073  0.72697335  0.03001892    -0.43200
N2700       N  0.02702420  0.66729106  0.23531695    -0.43200
C2701       C  0.79649407  0.92894093  0.08850332     0.00300
C2702       C  0.82176593  0.96489031  0.09777925    -0.11500
C2703       C  0.85703397  0.97997487  0.10036717     0.02600
C2704       C  0.86754297  0.95853411  0.09426781     0.00300
C2705       C  0.84223791  0.92278968  0.08276889    -0.11500
C2706       C  0.80714241  0.90805789  0.07979924     0.02500
H2707       H  0.81339579  0.98088127  0.10460761     0.15400
H2708       H  0.84933390  0.90569123  0.07794969     0.15400
C2709       C  0.78169858  0.87081357  0.07065628     0.37100
C2710       C  0.87664562  0.51655650  0.11586674     0.37000
N2711       N  0.76117199  0.84092171  0.06339997    -0.43200
N2712       N  0.89508801  0.54633473  0.12445433    -0.43200
C2713       C  0.57338913  0.93992014  0.14591675     0.00300
C2714       C  0.59073540  0.94163134  0.10950381    -0.11500
C2715       C  0.60479278  0.92390121  0.10020504     0.02600
C2716       C  0.60134296  0.90314975  0.12770805     0.00300
C2717       C  0.58320072  0.90077883  0.16379212    -0.11500
C2718       C  0.56982511  0.91905016  0.17335761     0.02500
H2719       H  0.59368467  0.95722341  0.08791154     0.15400
H2720       H  0.57957750  0.88457773  0.18507755     0.15400
C2721       C  0.55314873  0.91586960  0.21192042     0.37100
C2722       C  0.62298094  0.92874204  0.06234722     0.37000
N2723       N  0.54002489  0.91333539  0.24291609    -0.43200
N2724       N  0.63675752  0.93318082  0.03142716    -0.43200
C2725       C  0.55890860  0.64960345  0.35852213     0.00300
C2726       C  0.53566888  0.65614374  0.35355526    -0.11500
C2727       C  0.54811394  0.69081737  0.34978968     0.02600
C2728       C  0.58457420  0.71974028  0.34923288     0.00300
C2729       C  0.60797390  0.71320467  0.35163318    -0.11500
C2730       C  0.59575250  0.67904249  0.35684441     0.02500
H2731       H  0.50738741  0.63448390  0.35517567     0.15400
H2732       H  0.63599270  0.73547264  0.35156354     0.15400
C2733       C  0.62202643  0.67601812  0.36243655     0.37100
C2734       C  0.52289258  0.69651793  0.34926668     0.37000
N2735       N  0.64368076  0.67458527  0.36740692    -0.43200
N2736       N  0.50259857  0.70109498  0.34923989    -0.43200
C2737       C  0.85331983  0.94373556  0.36376815     0.00300
C2738       C  0.83784899  0.96011967  0.37203445    -0.11500
C2739       C  0.80319069  0.94234003  0.36415655     0.02600
C2740       C  0.78379002  0.90785279  0.34772032     0.00300
C2741       C  0.80035787  0.89287404  0.33602044    -0.11500
C2742       C  0.83507586  0.91062168  0.34383320     0.02500
H2743       H  0.85192846  0.98575690  0.38682521     0.15400
H2744       H  0.78542450  0.86651289  0.32289247     0.15400
C2745       C  0.85130281  0.89426377  0.33155914     0.37100
C2746       C  0.78712155  0.95896987  0.37491448     0.37000
N2747       N  0.86436774  0.88125375  0.32140942    -0.43200
N2748       N  0.77409486  0.97217395  0.38343549    -0.43200
C2749       C  0.56238950  0.92934912  0.40259498     0.00300
C2750       C  0.55862483  0.90985501  0.36820570    -0.11500
C2751       C  0.57528427  0.89461771  0.35946230     0.02600
C2752       C  0.59798437  0.90020781  0.38457949     0.00300
C2753       C  0.60111784  0.91906980  0.41929220    -0.11500
C2754       C  0.58313388  0.93282883  0.42887697     0.02500
H2755       H  0.54175676  0.90567008  0.34828456     0.15400
H2756       H  0.61816125  0.92352349  0.43911420     0.15400
C2757       C  0.58720194  0.95057104  0.46579205     0.37100
C2758       C  0.56661729  0.87175977  0.32573241     0.37000
N2759       N  0.59091003  0.96428331  0.49576343    -0.43200
N2760       N  0.55919194  0.85332389  0.29869701    -0.43200
C2761       C  0.87568499  0.59658036  0.22319230     0.00300
C2762       C  0.85490614  0.55993078  0.22594074    -0.11500
C2763       C  0.87066928  0.54376854  0.22019250     0.02600
C2764       C  0.90776653  0.56458226  0.21116424     0.00300
C2765       C  0.92835192  0.60125741  0.20824810    -0.11500
C2766       C  0.91260540  0.61732136  0.21448254     0.02500
H2767       H  0.82640122  0.54406842  0.23237468     0.15400
H2768       H  0.95686265  0.61742837  0.20136794     0.15400
C2769       C  0.93471764  0.65514268  0.21193202     0.37100
C2770       C  0.84820525  0.50579026  0.22181998     0.37000
N2771       N  0.95262856  0.68551490  0.21000438    -0.43200
N2772       N  0.83318016  0.97676807  0.22835486    -0.43200
C2773       C  0.88989407  0.78154483  0.23468624     0.00300
C2774       C  0.86897203  0.79122133  0.23254098    -0.11500
C2775       C  0.88446702  0.82569979  0.22389882     0.02600
C2776       C  0.92173407  0.85098956  0.21607143     0.00300
C2777       C  0.94264911  0.84144420  0.21996632    -0.11500
C2778       C  0.92698621  0.80703010  0.22918344     0.02500
H2779       H  0.84035500  0.77146725  0.23713860     0.15400
H2780       H  0.97130040  0.86061725  0.21477748     0.15400
C2781       C  0.94929139  0.79798437  0.23152595     0.37100
C2782       C  0.86148394  0.83452695  0.22494508     0.37000
N2783       N  0.96733894  0.79091558  0.23345882    -0.43200
N2784       N  0.84269388  0.84124262  0.22646300    -0.43200
C2785       C  0.69147141  0.58376576  0.26425037     0.00300
C2786       C  0.68009385  0.60334209  0.27842646    -0.11500
C2787       C  0.64531925  0.58967454  0.27594238     0.02600
C2788       C  0.62073524  0.55518509  0.26019481     0.00300
C2789       C  0.63140756  0.53443511  0.24934826    -0.11500
C2790       C  0.66664437  0.54871156  0.25063193     0.02500
H2791       H  0.69923029  0.63038388  0.28868573     0.15400
H2792       H  0.61310069  0.50811269  0.23686401     0.15400
C2793       C  0.67737932  0.52769272  0.23600787     0.37100
C2794       C  0.63628629  0.61253485  0.28722810     0.37000
N2795       N  0.68599511  0.51084082  0.22416347    -0.43200
N2796       N  0.62882306  0.63073542  0.29560368    -0.43200
C2797       C  0.88740578  0.60964757  0.46645577     0.00300
C2798       C  0.91299667  0.62014810  0.49000861    -0.11500
C2799       C  0.93109022  0.60640229  0.48405894     0.02600
C2800       C  0.92378657  0.58143379  0.45378474     0.00300
C2801       C  0.89841032  0.57118414  0.42991555    -0.11500
C2802       C  0.87997781  0.58465050  0.43624241     0.02500
H2803       H  0.91916653  0.63958237  0.51298842     0.15400
H2804       H  0.89209649  0.55168950  0.40694960     0.15400
C2805       C  0.85216636  0.57080415  0.41276145     0.37100
C2806       C  0.95780046  0.61939971  0.50884042     0.37000
N2807       N  0.82978485  0.55962483  0.39401690    -0.43200
N2808       N  0.47561387  0.62687074  0.53281173    -0.43200
C2809       C  0.92141586  0.86100733  0.50290671     0.00300
C2810       C  0.94315414  0.85116601  0.49594571    -0.11500
C2811       C  0.92882814  0.81604116  0.49876102     0.02600
C2812       C  0.89243693  0.79019524  0.50956818     0.00300
C2813       C  0.87007166  0.79770890  0.01892418    -0.11500
C2814       C  0.88433055  0.83268211  0.01470480     0.02500
H2815       H  0.97098806  0.87040030  0.48571646     0.15400
H2816       H  0.84180103  0.77765708  0.02636217     0.15400
C2817       C  0.86066934  0.84110625  0.02201728     0.37100
C2818       C  0.95141739  0.80646601  0.48858526     0.37000
N2819       N  0.84150427  0.84760727  0.02778201    -0.43200
N2820       N  0.96938421  0.79859442  0.48040679    -0.43200
C2821       C  0.63045408  0.55950577  0.48566446     0.00300
C2822       C  0.64524378  0.54428154  0.46614078    -0.11500
C2823       C  0.67927820  0.55789708  0.47153919     0.02600
C2824       C  0.69879108  0.58703573  0.49687448     0.00300
C2825       C  0.68440231  0.60077961  0.01571756    -0.11500
C2826       C  0.65098904  0.58873075  0.00954565     0.02500
H2827       H  0.63091332  0.52295274  0.44517323     0.15400
H2828       H  0.70116012  0.62480954  0.03273262     0.15400
C2829       C  0.63838388  0.60747865  0.02767602     0.37100
C2830       C  0.69457868  0.54282565  0.44964142     0.37000
N2831       N  0.62809935  0.62232922  0.04222419    -0.43200
N2832       N  0.70718855  0.53105967  0.43213594    -0.43200
C2833       C  0.82827207  0.66421333  0.40864012     0.00300
C2834       C  0.81983343  0.63431212  0.38588677    -0.11500
C2835       C  0.81545728  0.63022469  0.34655474     0.02600
C2836       C  0.82302299  0.65801570  0.32660265     0.00300
C2837       C  0.82546140  0.68483149  0.35040254    -0.11500
C2838       C  0.82607324  0.68692927  0.39065962     0.02500
H2839       H  0.81393961  0.61242749  0.39953438     0.15400
H2840       H  0.82374530  0.70258904  0.33817675     0.15400
C2841       C  0.81845086  0.70861080  0.41271187     0.37100
C2842       C  0.79893879  0.59543313  0.32908119     0.37000
N2843       N  0.81160156  0.72561593  0.42993802    -0.43200
N2844       N  0.78537644  0.56732195  0.31553388    -0.43200
C2845       C  0.82198850  0.65548710  0.07645194     0.00300
C2846       C  0.84949617  0.66051304  0.09193575    -0.11500
C2847       C  0.84966482  0.66011608  0.13171063     0.02600
C2848       C  0.82019675  0.65138427  0.15833111     0.00300
C2849       C  0.79563248  0.65184568  0.14345669    -0.11500
C2850       C  0.79725449  0.65543998  0.10391879     0.02500
H2851       H  0.87277428  0.66778563  0.07321679     0.15400
H2852       H  0.77667536  0.65242408  0.16309484     0.15400
C2853       C  0.77621200  0.66363851  0.09348394     0.37100
C2854       C  0.88271002  0.67352073  0.14414960     0.37000
N2855       N  0.75954594  0.67062941  0.08550117    -0.43200
N2856       N  0.90959973  0.68483167  0.15359374    -0.43200
C2857       C  0.82525478  0.65974282  0.53188454     0.30500
C2858       C  0.82812789  0.66262924  0.95318862     0.30500
C2859       C  0.84342638  0.64651650  0.50503324    -0.05700
C2860       C  0.78994754  0.63858215  0.51419828    -0.06500
C2861       C  0.84550958  0.69699904  0.51702049    -0.06400
C2862       C  0.84566811  0.64855631  0.96533923    -0.05700
C2863       C  0.79108995  0.63830628  0.97481686    -0.06500
C2864       C  0.84593715  0.69722716  0.97802974    -0.06400
C2865       C  0.86341345  0.63668894  0.94674775    -0.31700
N2866       N  0.86986277  0.62423452  0.97292091     0.14800
C2867       C  0.85754002  0.63030561  0.50898464    -0.31800
H2868       H  0.85861656  0.62256809  0.53542071     0.16700
C2869       C  0.75747813  0.61742638  0.96456001    -0.30700
N2870       N  0.73603087  0.60636028  0.49598609     0.13500
C2871       C  0.75409480  0.61535940  0.52622676    -0.30700
C2872       C  0.86712828  0.73282842  0.97187053    -0.31000
N2873       N  0.87611195  0.75338629  0.50507375     0.14000
H2874       H  0.87627186  0.74512567  0.94461409     0.16600
C2875       C  0.86209050  0.73047035  0.53342574    -0.31000
H2876       H  0.86349472  0.73759436  0.56361268     0.16600
H2877       H  0.74177280  0.60566242  0.55464958     0.16600
H2878       H  0.87146371  0.63751126  0.91639820     0.16700
H2879       H  0.75011836  0.61525493  0.93662881     0.16600
C2880       C  0.82295978  0.65770562  0.78231504     0.30500
C2881       C  0.82120764  0.65370921  0.70306136     0.30500
C2882       C  0.84040153  0.64324067  0.75694845    -0.05700
C2883       C  0.78595597  0.63453087  0.76791970    -0.06500
C2884       C  0.84208120  0.69302036  0.76251533    -0.06400
C2885       C  0.83845205  0.64018548  0.71734109    -0.05700
C2886       C  0.78493580  0.63216014  0.72815276    -0.06500
C2887       C  0.84066516  0.69034000  0.72286719    -0.06400
C2888       C  0.85220878  0.62366114  0.70113239    -0.31700
N2889       N  0.86416509  0.61862776  0.72889599     0.14800
C2890       C  0.85771893  0.63082925  0.76280991    -0.31800
H2891       H  0.86471999  0.63009606  0.78969013     0.16700
C2892       C  0.74952728  0.61000729  0.72236004    -0.30700
N2893       N  0.72942502  0.59999239  0.75676633     0.13500
C2894       C  0.75133569  0.61502001  0.78474315    -0.30700
C2895       C  0.85911434  0.72359853  0.71016101    -0.31000
N2896       N  0.87220586  0.74671582  0.74024661     0.14000
H2897       H  0.86268129  0.73063166  0.68112847     0.16600
C2898       C  0.86252606  0.72884906  0.77227508    -0.31000
H2899       H  0.87018677  0.74132629  0.80015330     0.16600
H2900       H  0.74275116  0.61269425  0.81508063     0.16600
H2901       H  0.85321687  0.61548734  0.67144229     0.16700
H2902       H  0.73887061  0.60244296  0.69523550     0.16600
O2903       O  0.53639635  0.94980043  0.87766152    -0.74800
O2904       O  0.53400556  0.94906182  0.94178970    -0.53700
C2905       C  0.54222260  0.94268247  0.90738658     0.78900
O2906       O  0.56294263  0.61361671  0.89215055    -0.59400
O2907       O  0.01250709  0.58544059  0.86222250    -0.52400
C2908       C  0.54456993  0.61521784  0.87198480     0.70900
O2909       O  0.60005923  0.56886886  0.95284118    -0.74000
O2910       O  0.56954956  0.51703617  0.98333060    -0.54500
C2911       C  0.59781984  0.54782458  0.97349856     0.76900
O2912       O  0.49989798  0.99393238  0.81514444    -0.59100
O2913       O  0.95352295  0.49535620  0.82673188    -0.52200
C2914       C  0.96807482  0.48247202  0.80997152     0.73500
Zr2915     Zr  0.50696278  0.97199569  0.86404593     2.54700
O2916       O  0.55380076  0.48723946  0.81700123    -0.79700
O2917       O  0.96724311  0.91324014  0.83470464    -0.93100
Zr2918     Zr  0.56109482  0.56891769  0.91899249     2.64700
O2919       O  0.60718362  0.58676653  0.86615188    -0.98000
O2920       O  0.60318536  0.62551936  0.95112247    -0.80100
O2921       O  0.54486707  0.51133053  0.91377926    -0.83500
O2922       O  0.52517962  0.53404977  0.86954778    -2.18200
O2923       O  0.88591422  0.93396838  0.89501863    -0.66800
O2924       O  0.91100710  0.98764765  0.87234798    -0.51400
C2925       C  0.88552899  0.95436529  0.87636898     0.71900
O2926       O  0.96741786  0.49441728  0.53144903    -0.59800
O2927       O  0.50521907  0.98412199  0.53670795    -0.51700
C2928       C  0.99950899  0.00682458  0.54609808     0.73700
O2929       O  0.94543096  0.55588146  0.97775829    -0.71100
O2930       O  0.94793836  0.55672121  0.91346550    -0.49800
C2931       C  0.94039800  0.56368162  0.94794941     0.75100
O2932       O  0.91616492  0.89589958  0.97350772    -0.66500
O2933       O  0.96919636  0.91902313  0.99247694    -0.53700
C2934       C  0.93613810  0.89357441  0.98956364     0.73500
Zr2935     Zr  0.92152185  0.93974681  0.93997427     2.77500
O2936       O  0.88142972  0.93700641  0.99279499    -0.97200
O2937       O  0.87228951  0.87883205  0.92383193    -0.78000
Zr2938     Zr  0.97401616  0.53301062  0.99231404     2.70100
O2939       O  0.94920595  0.04401920  0.54816106    -0.79300
O2940       O  0.52258066  0.59300652  0.51965878    -0.98400
Zr2941     Zr  0.51022972  0.97900058  0.96788033     2.21500
Zr2942     Zr  0.97055277  0.52572570  0.88716350     2.11100
O2943       O  0.93810539  0.99752639  0.94443962    -2.47100
O2944       O  0.95936393  0.97600937  0.98652834    -0.79100
O2945       O  0.95563523  0.96716238  0.88274749    -0.71300
O2946       O  0.52841936  0.54089161  0.97690007    -2.32200
O2947       O  0.97169108  0.94165566  0.92150890    -2.28400
O2948       O  0.51028977  0.56548653  0.93495220    -0.73000
H2949       H  0.53896026  0.54766699  0.84693831     0.79000
H2950       H  0.54312760  0.55344627  0.49659323     0.80000
H2951       H  0.91688683  0.99528551  0.94917629     0.82300
H2952       H  0.96530043  0.91846672  0.91927598     0.79900
H2953       H  0.59444557  0.62148945  0.97860571     0.42900
H2954       H  0.53326542  0.60927249  0.49835749     0.41900
H2955       H  0.92414633  0.02706546  0.54279504     0.41600
H2956       H  0.86052891  0.92891078  0.98082711     0.39500
H2957       H  0.88226864  0.87227500  0.90141029     0.42600
H2958       H  0.94311925  0.90456098  0.84525583     0.37400
H2959       H  0.57605492  0.50502991  0.82889459     0.43500
H2960       H  0.62956336  0.60594788  0.87717738     0.39900
H2961       H  0.87296153  0.91661289  0.00730386     0.44900
H2962       H  0.97040388  0.89828924  0.84616747     0.43600
H2963       H  0.60763571  0.56673421  0.86149793     0.43700
H2964       H  0.01341824  0.60179408  0.53427764     0.44100
O2965       O  0.56042136  0.97445547  0.62181600    -0.74800
O2966       O  0.54268940  0.95611721  0.68244426    -0.53700
C2967       C  0.55801362  0.95782527  0.64903194     0.78900
O2968       O  0.56198471  0.62192939  0.67467689    -0.59400
O2969       O  0.01966192  0.60178456  0.63513481    -0.52400
C2970       C  0.54766959  0.62606706  0.65122848     0.70900
O2971       O  0.58892981  0.56696920  0.73276051    -0.74000
O2972       O  0.56011805  0.50979854  0.74641232    -0.54500
C2973       C  0.58755367  0.54294543  0.74592806     0.76900
O2974       O  0.54794218  0.04716806  0.56997606    -0.59100
O2975       O  0.00552265  0.55427582  0.57602843    -0.52200
C2976       C  0.01761426  0.53832549  0.56221732     0.73500
Zr2977     Zr  0.54300355  0.01072534  0.61434196     2.54700
O2978       O  0.60300181  0.55639135  0.61241886    -0.79700
O2979       O  0.05414643  0.98662146  0.55930391    -0.93100
Zr2980     Zr  0.55156470  0.57358737  0.70505110     2.64700
O2981       O  0.61324943  0.62374069  0.68699176    -0.98000
O2982       O  0.55551322  0.60649554  0.76455740    -0.80100
O2983       O  0.55281419  0.52653408  0.68039689    -0.83500
O2984       O  0.53816788  0.55666870  0.64177522    -2.18200
O2985       O  0.90229863  0.94683074  0.61599117    -0.66800
O2986       O  0.92888326  0.00456141  0.60923929    -0.51400
C2987       C  0.90265120  0.97134094  0.60605279     0.71900
O2988       O  0.93079677  0.45223844  0.76233231    -0.59800
O2989       O  0.47202433  0.94248616  0.76674595    -0.51700
C2990       C  0.95027857  0.95136804  0.78308231     0.73700
O2991       O  0.91930871  0.52915536  0.72634558    -0.71100
O2992       O  0.94839878  0.55964556  0.67171290    -0.49800
C2993       C  0.92635616  0.55051769  0.70192306     0.75100
O2994       O  0.92517680  0.89324915  0.68361155    -0.66500
O2995       O  0.97237139  0.91258035  0.71351127    -0.53700
C2996       C  0.94135116  0.88823004  0.70318338     0.73500
Zr2997     Zr  0.93829805  0.94124934  0.64918158     2.77500
O2998       O  0.87605815  0.88907040  0.65777004    -0.97200
O2999       O  0.94408630  0.91403160  0.58919827    -0.78000
Zr3000     Zr  0.94876472  0.50691479  0.74069894     2.70100
O3001       O  0.89412629  0.97842781  0.78291341    -0.79300
O3002       O  0.47414143  0.55212051  0.79423345    -0.98400
Zr3003     Zr  0.50913328  0.97481736  0.71071108     2.21500
Zr3004     Zr  0.97994315  0.53883287  0.64056647     2.11100
O3005       O  0.93565279  0.98700276  0.67662774    -2.47100
O3006       O  0.95101395  0.95888492  0.71223443    -0.79100
O3007       O  0.98552044  0.99198219  0.61683369    -0.71300
O3008       O  0.50725554  0.52461126  0.74311888    -2.34000
O3009       O  0.99615254  0.95946163  0.65068403    -2.28400
O3010       O  0.49463399  0.55752350  0.70502224    -0.73000
H3011       H  0.55602458  0.57751847  0.62723246     0.79000
H3012       H  0.51561480  0.53278382  0.76828124     0.80000
H3013       H  0.91251922  0.98019483  0.67618929     0.82300
H3014       H  0.99586846  0.93987043  0.64167916     0.79900
H3015       H  0.55988146  0.59697706  0.78347998     0.42900
H3016       H  0.48608236  0.57475149  0.78206250     0.41900
H3017       H  0.87574576  0.95665103  0.76906999     0.41600
H3018       H  0.86330834  0.89816989  0.66899805     0.39500
H3019       H  0.94145884  0.89378229  0.59688115     0.42600
H3020       H  0.03919631  0.96102096  0.56354812     0.37400
H3021       H  0.61301658  0.54648895  0.59518733     0.43500
H3022       H  0.62385473  0.63431047  0.71138449     0.39900
H3023       H  0.86890680  0.88049576  0.63162722     0.44900
H3024       H  0.07884943  0.99569769  0.55843062     0.43600
H3025       H  0.62422709  0.61314718  0.67434548     0.43700
H3026       H  0.95131038  0.54494387  0.81042440     0.44100
C3027       C  0.65882670  0.85023056  0.81903675     0.30500
C3028       C  0.65584369  0.84709133  0.89803601     0.30500
C3029       C  0.65153409  0.87318977  0.84528420    -0.05700
C3030       C  0.62989943  0.81306393  0.83683745    -0.06500
C3031       C  0.69208428  0.86072426  0.83399723    -0.06400
C3032       C  0.64947750  0.87108396  0.88505354    -0.05700
C3033       C  0.62794374  0.81190809  0.87691475    -0.06500
C3034       C  0.69038776  0.85955581  0.87354471    -0.06400
C3035       C  0.62719281  0.87818375  0.90184927    -0.31700
N3036       N  0.61779923  0.88708132  0.87499106     0.14800
C3037       C  0.63220810  0.88363907  0.84037179    -0.31800
H3038       H  0.62804520  0.88700586  0.81305813     0.16700
C3039       C  0.60586484  0.77681926  0.88587162    -0.30700
N3040       N  0.59637425  0.75649011  0.85324522     0.13500
C3041       C  0.61155931  0.77819882  0.82322128    -0.30700
C3042       C  0.72337908  0.87371361  0.88166156    -0.31000
N3043       N  0.74491957  0.88284607  0.84849750     0.14000
H3044       H  0.73171357  0.87873508  0.90978921     0.16600
C3045       C  0.72623227  0.87450512  0.81909901    -0.31000
H3046       H  0.73734332  0.87991719  0.78952686     0.16600
H3047       H  0.61221242  0.76956953  0.79365907     0.16600
H3048       H  0.61625178  0.87435121  0.93154346     0.16700
H3049       H  0.59999082  0.76668949  0.91378826     0.16600
C3050       C  0.66777027  0.85482020  0.56797675     0.30500
C3051       C  0.66962210  0.86107054  0.64738436     0.30500
C3052       C  0.64438139  0.86271059  0.59276909    -0.05700
C3053       C  0.65558662  0.82178022  0.58778640    -0.06500
C3054       C  0.70450368  0.88406943  0.58299278    -0.06400
C3055       C  0.64596912  0.86644706  0.63217827    -0.05700
C3056       C  0.65818912  0.82603612  0.62726970    -0.06500
C3057       C  0.70548399  0.88730446  0.62316144    -0.06400
C3058       C  0.62994533  0.88086922  0.64743250    -0.31700
N3059       N  0.61718026  0.88477253  0.61918889     0.14800
C3060       C  0.62502405  0.87258184  0.58589188    -0.31800
H3061       H  0.61805152  0.87151345  0.55827267     0.16700
C3062       C  0.64406081  0.79412623  0.64048226    -0.30700
N3063       N  0.62970960  0.76948926  0.61184855     0.13500
C3064       C  0.63599512  0.78569239  0.57965138    -0.30700
C3065       C  0.74044449  0.90538758  0.62871511    -0.31000
N3066       N  0.76053899  0.91435381  0.59446385     0.14000
H3067       H  0.75037853  0.90865238  0.65520877     0.16600
C3068       C  0.73894559  0.90066570  0.56642277    -0.31000
H3069       H  0.74721025  0.90026517  0.53626806     0.16600
H3070       H  0.62416318  0.77162207  0.55366172     0.16600
H3071       H  0.62979877  0.89000077  0.67685953     0.16700
H3072       H  0.64165265  0.78846084  0.66978798     0.16600
C3073       C  0.66591067  0.86069250  0.69262450     0.00300
C3074       C  0.69333093  0.88769287  0.71467956    -0.11500
C3075       C  0.69077208  0.88575382  0.75492039     0.02600
C3076       C  0.66148215  0.85476542  0.77485964     0.00300
C3077       C  0.63239734  0.82998834  0.75364617    -0.11500
C3078       C  0.63377494  0.83355546  0.71416347     0.02500
H3079       H  0.71616098  0.91167908  0.70115824     0.15400
H3080       H  0.60749017  0.80853072  0.76827482     0.15400
C3081       C  0.60092610  0.80986954  0.69699167     0.37100
C3082       C  0.71779265  0.91730629  0.77507319     0.37000
N3083       N  0.57458492  0.79127424  0.68325250    -0.43200
N3084       N  0.73960500  0.94287460  0.79083402    -0.43200
C3085       C  0.65827083  0.84817756  0.94233853     0.00300
C3086       C  0.66703132  0.87784225  0.96607695    -0.11500
C3087       C  0.67222860  0.88136424  0.00516891     0.02600
C3088       C  0.66737264  0.85358768  0.52325297     0.00300
C3089       C  0.66087009  0.82597704  0.99947029    -0.11500
C3090       C  0.65901698  0.82409169  0.95950092     0.02500
H3091       H  0.67252243  0.89998299  0.95357026     0.15400
H3092       H  0.66178129  0.80723944  0.01049596     0.15400
C3093       C  0.66241927  0.79975143  0.93642408     0.37100
C3094       C  0.68962046  0.91536823  0.52367570     0.37000
N3095       N  0.66584917  0.78059716  0.91813991    -0.43200
N3096       N  0.70318024  0.94285827  0.53891569    -0.43200
C3097       C  0.60608833  0.73220620  0.61817894     0.00300
C3098       C  0.58158125  0.71960672  0.65118355    -0.11500
C3099       C  0.56191460  0.68491847  0.66210360     0.02600
C3100       C  0.56619346  0.66196585  0.63945547     0.00300
C3101       C  0.58914646  0.67366766  0.60536219    -0.11500
C3102       C  0.60925160  0.70870545  0.59461398     0.02500
H3103       H  0.57860395  0.73734189  0.66916469     0.15400
H3104       H  0.59214937  0.65572048  0.58780712     0.15400
C3105       C  0.63437061  0.72043561  0.56080183     0.37100
C3106       C  0.53817850  0.67373675  0.69707661     0.37000
N3107       N  0.65450624  0.72977290  0.53366275    -0.43200
N3108       N  0.03281351  0.66874364  0.73581466    -0.43200
C3109       C  0.79752666  0.93029583  0.58969684     0.00300
C3110       C  0.82275826  0.96614622  0.59959267    -0.11500
C3111       C  0.85819251  0.98127118  0.60142349     0.02600
C3112       C  0.86876002  0.95988204  0.59439371     0.00300
C3113       C  0.84351156  0.92433310  0.58241800    -0.11500
C3114       C  0.80837527  0.90964209  0.57984891     0.02500
H3115       H  0.81435278  0.98206570  0.60711092     0.15400
H3116       H  0.85079374  0.90740806  0.57669451     0.15400
C3117       C  0.78311243  0.87260823  0.56972929     0.37100
C3118       C  0.87797445  0.51836457  0.61138263     0.37000
N3119       N  0.76272278  0.84288674  0.56164389    -0.43200
N3120       N  0.89717260  0.54844611  0.61836319    -0.43200
C3121       C  0.57282727  0.93852574  0.64153097     0.00300
C3122       C  0.58940520  0.93905257  0.60502014    -0.11500
C3123       C  0.60344844  0.92118726  0.59640476     0.02600
C3124       C  0.60076232  0.90148911  0.62475062     0.00300
C3125       C  0.58323419  0.90020035  0.66087920    -0.11500
C3126       C  0.56999054  0.91864220  0.66975783     0.02500
H3127       H  0.59178808  0.95385184  0.58288226     0.15400
H3128       H  0.58000814  0.88476029  0.68282340     0.15400
C3129       C  0.55424586  0.91670029  0.70857105     0.37100
C3130       C  0.62080473  0.92474378  0.55830031     0.37000
N3131       N  0.54186030  0.91524455  0.73972574    -0.43200
N3132       N  0.63397914  0.92794727  0.52722582    -0.43200
C3133       C  0.55900396  0.65121787  0.86139435     0.00300
C3134       C  0.53523958  0.65710508  0.85671642    -0.11500
C3135       C  0.54716612  0.69141797  0.85240472     0.02600
C3136       C  0.58353958  0.72055978  0.85142341     0.00300
C3137       C  0.60741653  0.71468788  0.85410705    -0.11500
C3138       C  0.59570300  0.68081492  0.85960508     0.02500
H3139       H  0.50702452  0.63516324  0.85851675     0.15400
H3140       H  0.63538495  0.73717870  0.85363102     0.15400
C3141       C  0.62223239  0.67794848  0.86461703     0.37100
C3142       C  0.52157793  0.69644664  0.85093967     0.37000
N3143       N  0.64386495  0.67630156  0.86904251    -0.43200
N3144       N  0.50092976  0.70036299  0.84991046    -0.43200
C3145       C  0.85241658  0.93830115  0.86027879     0.00300
C3146       C  0.83851311  0.95622984  0.86608128    -0.11500
C3147       C  0.80365934  0.93886772  0.85943171     0.02600
C3148       C  0.78243172  0.90322492  0.84658289     0.00300
C3149       C  0.79726589  0.88632067  0.83722581    -0.11500
C3150       C  0.83226098  0.90370549  0.84369364     0.02500
H3151       H  0.85400336  0.98298028  0.87824586     0.15400
H3152       H  0.78092530  0.85904444  0.82672026     0.15400
C3153       C  0.84687762  0.88560946  0.83330657     0.37100
C3154       C  0.78940626  0.95735452  0.86794990     0.37000
N3155       N  0.85878585  0.87132248  0.82469684    -0.43200
N3156       N  0.77805548  0.97226072  0.87477007    -0.43200
C3157       C  0.55973789  0.92625334  0.90092856     0.00300
C3158       C  0.55632689  0.90676436  0.86658331    -0.11500
C3159       C  0.57368319  0.89221607  0.85807125     0.02600
C3160       C  0.59671171  0.89867099  0.88331098     0.00300
C3161       C  0.59916433  0.91718465  0.91807060    -0.11500
C3162       C  0.58041864  0.93006297  0.92749122     0.02500
H3163       H  0.53939948  0.90221819  0.84649730     0.15400
H3164       H  0.61633819  0.92214407  0.93805404     0.15400
C3165       C  0.58369726  0.94738314  0.96453449     0.37100
C3166       C  0.56551762  0.86917794  0.82453995     0.37000
N3167       N  0.58655885  0.96079660  0.99457339    -0.43200
N3168       N  0.55863389  0.85050670  0.79775941    -0.43200
C3169       C  0.87979304  0.60172564  0.72333482     0.00300
C3170       C  0.85846033  0.56547674  0.72929722    -0.11500
C3171       C  0.87287627  0.54799945  0.72266761     0.02600
C3172       C  0.90925664  0.56709637  0.70959608     0.00300
C3173       C  0.93044273  0.60349948  0.70385328    -0.11500
C3174       C  0.91603159  0.62087015  0.71092292     0.02500
H3175       H  0.83045812  0.55087381  0.73869145     0.15400
H3176       H  0.95849873  0.61854561  0.69434208     0.15400
C3177       C  0.93893105  0.65847768  0.70604225     0.37100
C3178       C  0.84949940  0.51037515  0.72785947     0.37000
N3179       N  0.95753683  0.68870444  0.70240227    -0.43200
N3180       N  0.82909045  0.97291351  0.71143380    -0.43200
C3181       C  0.89037437  0.78358124  0.73768568     0.00300
C3182       C  0.87032876  0.79468672  0.73806409    -0.11500
C3183       C  0.88631841  0.82873145  0.72731301     0.02600
C3184       C  0.92313179  0.85217141  0.71556374     0.00300
C3185       C  0.94340453  0.84143359  0.71716959    -0.11500
C3186       C  0.92723414  0.80733301  0.72795719     0.02500
H3187       H  0.84187277  0.77613189  0.74549941     0.15400
H3188       H  0.97179223  0.85935577  0.70894439     0.15400
C3189       C  0.94859184  0.79668975  0.72764108     0.37100
C3190       C  0.86436561  0.83891660  0.72922540     0.37000
N3191       N  0.96583088  0.78828648  0.72749226    -0.43200
N3192       N  0.84659680  0.84689749  0.73096397    -0.43200
C3193       C  0.69203401  0.58261935  0.76209259     0.00300
C3194       C  0.68104373  0.60260656  0.77577101    -0.11500
C3195       C  0.64638107  0.58934585  0.77327092     0.02600
C3196       C  0.62131273  0.55470181  0.75802359     0.00300
C3197       C  0.63163751  0.53356294  0.74761505    -0.11500
C3198       C  0.66681767  0.54746612  0.74896026     0.02500
H3199       H  0.70043696  0.62967316  0.78579782     0.15400
H3200       H  0.61304137  0.50710483  0.73560078     0.15400
C3201       C  0.67698725  0.52581531  0.73532057     0.37100
C3202       C  0.63811166  0.61286606  0.78425661     0.37000
N3203       N  0.68511243  0.50840886  0.72438921    -0.43200
N3204       N  0.63170168  0.63192666  0.79263125    -0.43200
C3205       C  0.88821258  0.60974701  0.96536541     0.00300
C3206       C  0.91194232  0.61849615  0.99064083    -0.11500
C3207       C  0.92971068  0.60447956  0.98527975     0.02600
C3208       C  0.92389183  0.58095817  0.95385802     0.00300
C3209       C  0.90077454  0.57280329  0.92804959    -0.11500
C3210       C  0.88275687  0.58662035  0.93363734     0.02500
H3211       H  0.91685536  0.63671398  0.01463617     0.15400
H3212       H  0.89582476  0.55458883  0.90400937     0.15400
C3213       C  0.85755386  0.57500357  0.90741324     0.37100
C3214       C  0.95449636  0.61573647  0.01196452     0.37000
N3215       N  0.83748652  0.56554371  0.88611446    -0.43200
N3216       N  0.47947346  0.63178525  0.02958708    -0.43200
C3217       C  0.92082504  0.85832841  0.00238283     0.00300
C3218       C  0.94259084  0.84856580  0.99738313    -0.11500
C3219       C  0.92807742  0.81346823  0.00105640     0.02600
C3220       C  0.89143710  0.78765064  0.01072473     0.00300
C3221       C  0.87108446  0.80021688  0.51953618    -0.11500
C3222       C  0.88518485  0.83531124  0.51623454     0.02500
H3223       H  0.97063569  0.86780949  0.98802096     0.15400
H3224       H  0.84299117  0.78015741  0.52793052     0.15400
C3225       C  0.86177679  0.84396603  0.52601962     0.37100
C3226       C  0.95084626  0.80400963  0.99299331     0.37000
N3227       N  0.84285112  0.85069535  0.53393432    -0.43200
N3228       N  0.96920051  0.79652071  0.98658287    -0.43200
C3229       C  0.63070653  0.55909137  0.98499487     0.00300
C3230       C  0.64309191  0.54083962  0.96861029    -0.11500
C3231       C  0.67618206  0.55260540  0.97511447     0.02600
C3232       C  0.69753633  0.58350445  0.99759260     0.00300
C3233       C  0.68326560  0.60107278  0.51805064    -0.11500
C3234       C  0.64930371  0.58777550  0.51221993     0.02500
H3235       H  0.62760347  0.51837902  0.94922028     0.15400
H3236       H  0.69866991  0.62393012  0.53703994     0.15400
C3237       C  0.63505944  0.60452619  0.53216621     0.37100
C3238       C  0.68827260  0.53330291  0.95761952     0.37000
N3239       N  0.62372947  0.61806881  0.54800947    -0.43200
N3240       N  0.69759672  0.51744936  0.94375139    -0.43200
C3241       C  0.82696025  0.66258133  0.90897187     0.00300
C3242       C  0.81928275  0.63332976  0.88538627    -0.11500
C3243       C  0.81522068  0.63006666  0.84603722     0.02600
C3244       C  0.82263016  0.65819846  0.82699085     0.00300
C3245       C  0.82460524  0.68442578  0.85153301    -0.11500
C3246       C  0.82461047  0.68550855  0.89175909     0.02500
H3247       H  0.81380800  0.61135965  0.89834682     0.15400
H3248       H  0.82273178  0.70232015  0.83994415     0.15400
C3249       C  0.81588613  0.70606426  0.91454085     0.37100
C3250       C  0.79919938  0.59576742  0.82741140     0.37000
N3251       N  0.80806651  0.72204990  0.93244336    -0.43200
N3252       N  0.78588309  0.56807665  0.81277295    -0.43200
C3253       C  0.82383564  0.65857149  0.57648421     0.00300
C3254       C  0.85199587  0.66479099  0.59197616    -0.11500
C3255       C  0.85245487  0.66487626  0.63185820     0.02600
C3256       C  0.82247341  0.65483056  0.65843676     0.00300
C3257       C  0.79726151  0.65426682  0.64353548    -0.11500
C3258       C  0.79880308  0.65793023  0.60402694     0.02500
H3259       H  0.87537723  0.67249346  0.57310343     0.15400
H3260       H  0.77783648  0.65407868  0.66320311     0.15400
C3261       C  0.77782552  0.66626242  0.59379239     0.37100
C3262       C  0.88617353  0.68056038  0.64443120     0.37000
N3263       N  0.76134772  0.67345013  0.58573601    -0.43200
N3264       N  0.91368269  0.69399095  0.65386764    -0.43200
loop_ 
_geom_bond_atom_site_label_1 
_geom_bond_atom_site_label_2 
_geom_bond_distance 
_geom_bond_site_symmetry_2 
_ccdc_geom_bond_type 
C1            C3   1.553       .  S
C1            C5   1.544       .  S
C1            C4   1.542       .  S
C1          C397   1.582       .  S
C2            C6   1.545       .  S
C2            C8   1.552       .  S
C2            C7   1.530       .  S
C2          C385   1.584       .  S
C3           C11   1.377       .  A
C3          C414   1.407   1_554  A
C4           C15   1.380       .  A
C4          C415   1.404   1_554  A
C5           C19   1.380       .  A
C5          C416   1.411   1_554  A
C6            C9   1.377       .  A
C6          C411   1.411       .  A
C7           C13   1.366       .  A
C7          C412   1.403       .  A
C8           C16   1.380       .  A
C8          C413   1.409       .  A
C9           N10   1.358       .  A
C9           H22   1.082       .  S
N10         C419   1.357       .  A
N10         C349   1.439       .  S
C11         N418   1.361   1_554  A
C11          H12   1.081       .  S
C13         N422   1.352       .  A
C13          H23   1.083       .  S
N14          C15   1.355   1_556  A
N14         C421   1.352       .  A
N14         C784   1.425       .  S
C15          H21   1.081       .  S
C16         N425   1.356       .  A
C16          H18   1.081       .  S
N17          C19   1.357       .  A
N17         C424   1.357   1_554  A
N17         C772   1.436       .  S
C19          H20   1.082       .  S
C24          C26   1.550       .  S
C24          C28   1.559       .  S
C24          C27   1.546       .  S
C24         C388   1.584       .  S
C25          C29   1.543       .  S
C25          C31   1.527       .  S
C25          C30   1.550       .  S
C25         C400   1.585       .  S
C26          C34   1.379       .  A
C26          C29   1.410       .  A
C27          C38   1.380       .  A
C27          C30   1.409       .  A
C28          C42   1.392       .  A
C28          C31   1.404       .  A
C29          C32   1.377       .  A
C30          C36   1.380       .  A
C31          C39   1.361       .  A
C32          N33   1.353       .  A
C32          H45   1.082       .  S
N33          C34   1.353       .  A
N33         C313   1.428       .  S
C34          H35   1.082       .  S
C36          N37   1.359       .  A
C36          H46   1.082       .  S
N37          C38   1.359       .  A
N37         C337   1.438       .  S
C38          H44   1.082       .  S
C39          N40   1.352       .  A
C39          H41   1.083       .  S
N40          C42   1.364       .  A
N40         C325   1.442       .  S
C42          H43   1.079       .  S
O47         Zr59   2.447       .  S
O47          C49   1.288       .  A
O48         Zr85   2.415       .  S
O48          C49   1.282       .  A
C49         C301   1.493       .  S
O50         Zr62   2.448       .  S
O50          C52   1.290       .  A
O51         Zr86   2.454       .  S
O51        C1684   1.294       .  A
C52        O1683   1.293       .  A
C52         C277   1.508       .  S
O53         Zr62   2.441       .  S
O53          C55   1.288       .  A
O54        Zr901   2.399   1_545  S
O54          C55   1.281       .  A
C55         C373   1.457       .  S
O56         Zr59   2.353   1_655  S
O56        C2506   1.259       .  A
O57         Zr86   2.385   1_565  S
O57          C58   1.265       .  A
C58        O2504   1.261       .  A
C58         C950   1.417       .  S
Zr59        O876   2.429       .  S
Zr59       O1693   2.435   1_455  S
Zr59        O881   2.339       .  S
Zr59        O882   2.428       .  S
Zr59       O1721   2.376   1_455  S
Zr59       O1723   2.353   1_455  S
O60        Zr875   2.431       .  S
O60         H103   0.990   1_565  S
O61       Zr1691   2.437       .  S
O61         H102   0.990       .  S
O61         H106   0.990       .  S
Zr62         O63   2.435       .  S
Zr62         O64   2.435       .  S
Zr62         O66   2.347       .  S
Zr62         O65   2.385       .  S
Zr62         O90   2.349       .  S
Zr62         O92   2.378       .  S
O63         H104   0.990       .  S
O63         H107   0.990       .  S
O64          H97   0.990       .  S
O65        Zr875   2.339   1_545  S
O65        Zr901   2.374   1_545  S
O66        Zr875   2.426   1_545  S
O66       Zr1718   2.430   1_455  S
O66          H93   0.968       .  S
O67         Zr79   2.424       .  S
O67          C69   1.285       .  A
O68        Zr902   2.407       .  S
O68          C69   1.284       .  A
C69         C289   1.459       .  S
O70        Zr490   2.392   1_564  S
O70         C888   1.268   1_565  A
O71        Zr493   2.379   1_654  S
O71        C1704   1.261       .  A
C72         O886   1.269       .  A
C72        O1703   1.262       .  A
C72         C936   1.439       .  S
O73         Zr82   2.443       .  S
O73          C75   1.286       .  A
O74         Zr86   2.414       .  S
O74          C75   1.284       .  A
C75         C352   1.480       .  S
O76         Zr79   2.452       .  S
O76          C78   1.289       .  A
O77       Zr1717   2.430       .  S
O77          C78   1.287       .  A
C78         C361   1.490       .  S
Zr79         O80   2.437       .  S
Zr79         O81   2.435       .  S
Zr79         O87   2.400       .  S
Zr79         O88   2.327       .  S
Zr79         O91   2.389       .  S
Zr79         O89   2.340       .  S
O80         H100   0.990       .  S
O80         H105   0.990       .  S
O81         H101   0.990       .  S
Zr82        O478   2.398   1_545  S
Zr82       O1307   2.421       .  S
Zr82       O2124   2.441       .  S
Zr82        O904   2.395   1_545  S
Zr82        O903   2.365   1_545  S
Zr82       O1724   2.344       .  S
Zr82       O1722   2.393       .  S
O83       Zr1306   2.427   1_554  S
O83          H99   0.990       .  S
O84       Zr2122   2.441   1_454  S
O84          H98   0.990   1_554  S
O84        H1740   0.989       .  S
Zr85        O870   2.392       .  S
Zr85        O479   2.374       .  S
Zr85       O1709   2.420   1_455  S
Zr85        O881   2.377       .  S
Zr85       O1720   2.401   1_455  S
Zr85        O906   2.434       .  S
Zr85       O1723   2.365   1_455  S
Zr86        O884   2.417   1_545  S
Zr86       O1698   2.428       .  S
Zr86        O903   2.382   1_545  S
Zr86        O905   2.402   1_545  S
Zr86       O1724   2.363       .  S
O87        Zr898   2.366       .  S
O87        Zr902   2.385       .  S
O87          H95   0.966       .  S
O88        Zr898   2.394       .  S
O88       Zr1717   2.400       .  S
O89       Zr1691   2.370       .  S
O89        Zr902   2.400       .  S
O90       Zr1714   2.389   1_455  S
O90        Zr901   2.435   1_545  S
O90         H502   0.966       .  S
O91       Zr1691   2.353       .  S
O91       Zr1717   2.365       .  S
O91          H96   0.965       .  S
O92       Zr1714   2.345   1_455  S
O92       Zr1718   2.369   1_455  S
H94         O498   0.965       .  S
H108       O1716   0.990       .  S
O109       Zr121   2.467       .  S
O109        C111   1.290       .  A
O110       Zr147   2.388       .  S
O110        C111   1.276       .  A
C111        C265   1.497       .  S
O112       Zr124   2.457       .  S
O112        C114   1.290       .  A
O113       Zr148   2.391       .  S
O113       C1746   1.280       .  A
C114       O1745   1.280       .  A
C114        C244   1.464       .  S
O115       Zr124   2.430       .  S
O115        C117   1.285       .  A
O116       Zr963   2.449   1_545  S
O116        C117   1.291       .  A
C117        C340   1.490       .  S
O118       Zr121   2.413       .  S
O118       C2568   1.269       .  A
O119       Zr148   2.393       .  S
O119        C120   1.268       .  A
C120       O2566   1.270       .  A
C120        C888   1.439       .  S
Zr121       O938   2.437       .  S
Zr121      O1755   2.437       .  S
Zr121       O943   2.337       .  S
Zr121       O944   2.392       .  S
Zr121      O1785   2.377   1_455  S
Zr121      O1783   2.322   1_455  S
O122       Zr937   2.437       .  S
O122        H165   0.990       .  S
O123      Zr1753   2.437       .  S
O123        H164   0.990       .  S
O123        H168   0.990       .  S
Zr124       O125   2.437       .  S
Zr124       O126   2.437       .  S
Zr124       O128   2.338       .  S
Zr124       O127   2.390       .  S
Zr124       O152   2.357       .  S
Zr124       O154   2.377   1_455  S
O125        H166   0.990       .  S
O125        H169   0.990       .  S
O126        H159   0.990       .  S
O127       Zr937   2.338       .  S
O127       Zr963   2.372   1_545  S
O128       Zr937   2.396       .  S
O128      Zr1780   2.411   1_455  S
O128        H155   0.966       .  S
O129       Zr141   2.440       .  S
O129        C131   1.287       .  A
O130       Zr964   2.444       .  S
O130        C131   1.288       .  A
C131        C256   1.497       .  S
O132       Zr144   2.424   1_565  S
O132        C950   1.269       .  A
O133       Zr147   2.391   1_655  S
O133       C1766   1.265       .  A
C134        O948   1.270       .  A
C134       O1765   1.266       .  A
C134        C874   1.419       .  S
O135       Zr144   2.440       .  S
O135        C137   1.285       .  A
O136       Zr148   2.408       .  S
O136        C137   1.282       .  A
C137        C316   1.476       .  S
O138       Zr141   2.453       .  S
O138        C140   1.289       .  A
O139      Zr1779   2.413       .  S
O139        C140   1.284       .  A
C140        C328   1.496       .  S
Zr141       O142   2.446       .  S
Zr141       O143   2.433       .  S
Zr141       O149   2.402       .  S
Zr141       O150   2.329       .  S
Zr141       O153   2.384       .  S
Zr141       O151   2.259       .  S
O142        H162   0.991       .  S
O142        H167   0.990       .  S
O143        H163   0.990       .  S
Zr144       O961   2.435   1_545  S
Zr144      O1778   2.442       .  S
Zr144       O966   2.373   1_545  S
Zr144       O965   2.365   1_545  S
Zr144      O1786   2.359       .  S
Zr144      O1784   2.403       .  S
O145       Zr960   2.435       .  S
O145        H161   0.990       .  S
O146      Zr1776   2.440       .  S
O146        H160   0.990       .  S
O146       H1802   0.990       .  S
Zr147       O932   2.448       .  S
Zr147      O1771   2.414   1_455  S
Zr147       O943   2.377       .  S
Zr147      O1782   2.388   1_455  S
Zr147       O968   2.435       .  S
Zr147      O1785   2.384   1_455  S
Zr148       O946   2.446       .  S
Zr148      O1760   2.410       .  S
Zr148       O965   2.382   1_545  S
Zr148       O967   2.395   1_545  S
Zr148      O1786   2.369       .  S
O149       Zr960   2.372       .  S
O149       Zr964   2.378       .  S
O149        H157   0.964       .  S
O150       Zr960   2.378       .  S
O150      Zr1779   2.386       .  S
O151      Zr1753   2.320       .  S
O151       Zr964   2.293       .  S
O152      Zr1776   2.403   1_455  S
O152       Zr963   2.432   1_545  S
O152        H156   0.967       .  S
O153      Zr1753   2.379       .  S
O153      Zr1779   2.385       .  S
O153        H158   0.964       .  S
O154      Zr1776   2.362       .  S
O154      Zr1780   2.368       .  S
H170       O1778   0.990       .  S
C171        C173   1.544       .  S
C171        C175   1.538       .  S
C171        C174   1.565       .  S
C171        C220   1.584       .  S
C172        C176   1.543       .  S
C172        C178   1.529       .  S
C172        C177   1.556       .  S
C172        C229   1.590       .  S
C173        C181   1.379       .  A
C173        C176   1.407       .  A
C174        C185   1.391       .  A
C174        C177   1.422       .  A
C175        C189   1.379       .  A
C175        C178   1.401       .  A
C176        C179   1.380       .  A
C177        C183   1.380       .  A
C178        C186   1.365       .  A
C179        N180   1.359       .  A
C179        H192   1.082       .  S
N180        C181   1.360       .  A
N180        C304   1.451       .  S
C181        H182   1.079       .  S
C183        N184   1.356       .  A
C183        H193   1.081       .  S
N184        C185   1.360       .  A
N184        C280   1.445       .  S
C185        H191   1.082       .  S
C186        N187   1.351       .  A
C186        H188   1.083       .  S
N187        C189   1.353       .  A
N187        C292   1.423       .  S
C189        H190   1.081       .  S
C194        C196   1.545       .  S
C194        C198   1.556       .  S
C194        C197   1.554       .  S
C194        C232   1.585       .  S
C195        C199   1.539       .  S
C195        C201   1.549       .  S
C195        C200   1.536       .  S
C195        C217   1.588       .  S
C196        C204   1.379       .  A
C196        C199   1.398       .  A
C197        C208   1.389       .  A
C197        C200   1.404       .  A
C198        C212   1.382       .  A
C198        C201   1.419       .  A
C199        C202   1.372       .  A
C200        C206   1.363       .  A
C201        C209   1.381       .  A
C202        N203   1.365       .  A
C202        H215   1.081       .  S
N203        C204   1.363       .  A
N203        C268   1.456       .  S
C204        H205   1.077       .  S
C206        N207   1.351       .  A
C206        H216   1.082       .  S
N207        C208   1.363       .  A
N207        C241   1.442       .  S
C208        H214   1.080       .  S
C209        N210   1.356       .  A
C209        H211   1.080       .  S
N210        C212   1.358       .  A
N210        C253   1.439       .  S
C212        H213   1.082       .  S
C217        C218   1.411       .  A
C217        C222   1.430       .  A
C218        C219   1.425       .  A
C218        H223   1.079       .  S
C219        C220   1.431       .  A
C219        C226   1.443       .  S
C220        C221   1.412       .  A
C221        C222   1.421       .  A
C221        H224   1.082       .  S
C222        C225   1.445       .  S
C225        N227   1.157       .  T
C226        N228   1.158       .  T
C229        C230   1.419       .  A
C229        C234   1.427       .  A
C230        C231   1.421       .  A
C230        H235   1.081       .  S
C231        C640   1.421       .  A
C231        C646   1.443       .  S
C232        C639   1.423       .  A
C232        C641   1.415       .  A
C233        C234   1.425       .  A
C233        C640   1.415       .  A
C233        H236   1.079       .  S
C234        C237   1.442       .  S
C237        N239   1.157       .  T
C238        C639   1.443       .  S
C238        N240   1.157       .  T
C241        C242   1.410       .  A
C241        C246   1.412       .  A
C242        C243   1.394       .  A
C242        H247   1.083       .  S
C243        C244   1.403       .  A
C243        C250   1.445       .  S
C244        C245   1.403       .  A
C245        C246   1.402       .  A
C245        H248   1.085       .  S
C246        C249   1.442       .  S
C249        N251   1.157       .  T
C250       N1884   1.157       .  T
N252       C1882   1.157       .  T
C253        C254   1.399       .  A
C253        C258   1.406       .  A
C254        C255   1.403       .  A
C254        H259   1.085       .  S
C255        C256   1.420       .  A
C255       C1078   1.443       .  S
C256        C257   1.411       .  A
C257        C258   1.404       .  A
C257        H260   1.084       .  S
C258        C261   1.442       .  S
C261        N263   1.157       .  T
C262       C1071   1.443   1_545  S
C262        N264   1.157       .  T
C265        C266   1.405       .  A
C265        C270   1.420       .  A
C266        C267   1.404       .  A
C266        H271   1.085       .  S
C267        C268   1.425       .  A
C267        C274   1.442       .  S
C268        C269   1.406       .  A
C269        C270   1.397       .  A
C269        H272   1.083       .  S
C270        C273   1.446       .  S
C273        N275   1.158       .  T
C274        N276   1.158       .  T
C277        C278   1.413       .  A
C277        C282   1.424       .  A
C278        C279   1.411       .  A
C278        H283   1.084       .  S
C279        C280   1.407       .  A
C279        C286   1.441       .  S
C280        C281   1.400       .  A
C281        C282   1.404       .  A
C281        H284   1.084       .  S
C282        C285   1.445       .  S
C285        N287   1.157       .  T
C286        N288   1.157       .  T
C289        C290   1.399       .  A
C289        C294   1.412       .  A
C290        C291   1.392       .  A
C290        H295   1.085       .  S
C291        C292   1.408       .  A
C291        C298   1.443       .  S
C292        C293   1.397       .  A
C293        C294   1.396       .  A
C293        H296   1.084       .  S
C294        C297   1.445       .  S
C297        N299   1.157       .  T
C298        N300   1.157       .  T
C301        C302   1.407       .  A
C301        C306   1.416       .  A
C302        C303   1.402       .  A
C302        H307   1.085       .  S
C303        C304   1.417       .  A
C303        C310   1.442       .  S
C304        C305   1.407       .  A
C305        C306   1.400       .  A
C305        H308   1.084       .  S
C306        C309   1.443       .  S
C309        N311   1.157       .  T
C310        N312   1.158       .  T
C313        C314   1.399       .  A
C313        C318   1.404       .  A
C314        C315   1.400       .  A
C314        H319   1.084       .  S
C315        C316   1.413       .  A
C315        C322   1.444       .  S
C316        C317   1.406       .  A
C317        C318   1.398       .  A
C317        H320   1.085       .  S
C318        C321   1.443       .  S
C321        N323   1.157       .  T
C322       N1140   1.157   1_545  T
N324       C1138   1.157       .  T
C325        C326   1.403       .  A
C325        C330   1.409       .  A
C326        C327   1.394       .  A
C326        H331   1.085       .  S
C327        C328   1.418       .  A
C327        C334   1.444       .  S
C328        C329   1.414       .  A
C329        C330   1.405       .  A
C329        H332   1.084       .  S
C330        C333   1.443       .  S
C333        N335   1.157       .  T
C334        N336   1.157       .  T
C337        C338   1.399       .  A
C337        C342   1.409       .  A
C338        C339   1.400       .  A
C338        H343   1.084       .  S
C339        C340   1.419       .  A
C339        C346   1.444       .  S
C340        C341   1.408       .  A
C341        C342   1.406       .  A
C341        H344   1.084       .  S
C342        C345   1.442       .  S
C345        N347   1.157       .  T
C346        N348   1.157       .  T
C349        C350   1.403       .  A
C349        C354   1.412       .  A
C350        C351   1.399       .  A
C350        H355   1.084       .  S
C351        C352   1.414       .  A
C351        C358   1.445       .  S
C352        C353   1.405       .  A
C353        C354   1.400       .  A
C353        H356   1.085       .  S
C354        C357   1.443       .  S
C357        N359   1.157       .  T
C358       N1992   1.157       .  T
N360       C1990   1.157       .  T
C361        C362   1.409       .  A
C361        C774   1.417       .  A
C362        C363   1.401       .  A
C362        H367   1.085       .  S
C363        C364   1.405       .  A
C363        C370   1.442       .  S
C364        C773   1.401       .  A
C364        N425   1.435       .  S
C365        C366   1.405       .  A
C365        C772   1.402       .  A
C365        H368   1.084       .  S
C366        C769   1.416       .  A
C366        C369   1.444       .  S
C369        N371   1.157       .  T
C370        N372   1.157       .  T
C373        C374   1.400       .  A
C373        C786   1.405       .  A
C374        C375   1.394       .  A
C374        H379   1.084       .  S
C375        C376   1.406       .  A
C375        C382   1.443       .  S
C376        C785   1.403       .  A
C376        N422   1.426       .  S
C377        C378   1.397       .  A
C377        C784   1.402   1_554  A
C377        H380   1.084       .  S
C378        C781   1.406   1_554  A
C378        C381   1.444       .  S
C381        N383   1.157       .  T
C382        N384   1.157       .  T
C385        C386   1.416       .  A
C385        C390   1.427       .  A
C386        C387   1.421       .  A
C386        H391   1.083       .  S
C387        C388   1.426       .  A
C387        C394   1.444       .  S
C388        C389   1.413       .  A
C389        C390   1.424       .  A
C389        H392   1.079       .  S
C390        C393   1.441       .  S
C393        N395   1.158       .  T
C394        N396   1.158       .  T
C397        C398   1.412       .  A
C397        C402   1.424       .  A
C398        C399   1.420       .  A
C398        H403   1.082       .  S
C399        C400   1.429       .  A
C399        C406   1.441       .  S
C400        C401   1.417       .  A
C401        C402   1.424       .  A
C401        H404   1.082       .  S
C402        C405   1.442       .  S
C405        N407   1.157       .  T
C406        N408   1.157       .  T
C409        C411   1.554       .  S
C409        C413   1.541       .  S
C409        C412   1.543       .  S
C409        C805   1.580       .  S
C410        C414   1.547       .  S
C410        C416   1.551       .  S
C410        C415   1.530       .  S
C410        C793   1.584       .  S
C411        C419   1.378       .  A
C412        C423   1.380       .  A
C413        C427   1.379       .  A
C414        C417   1.379       .  A
C415        C421   1.364       .  A
C416        C424   1.379       .  A
C417        N418   1.360       .  A
C417        H430   1.081       .  S
N418        C757   1.447       .  S
C419        H420   1.081       .  S
C421        H431   1.083       .  S
N422        C423   1.356       .  A
C423        H429   1.081       .  S
C424        H426   1.081       .  S
N425        C427   1.356       .  A
C427        H428   1.082       .  S
C432        C434   1.553       .  S
C432        C436   1.556       .  S
C432        C435   1.546       .  S
C432        C796   1.583       .  S
C433        C437   1.544       .  S
C433        C439   1.528       .  S
C433        C438   1.548       .  S
C433        C808   1.581       .  S
C434        C442   1.381       .  A
C434        C437   1.409       .  A
C435        C446   1.380       .  A
C435        C438   1.409       .  A
C436        C450   1.390       .  A
C436        C439   1.404       .  A
C437        C440   1.379       .  A
C438        C444   1.379       .  A
C439        C447   1.365       .  A
C440        N441   1.355       .  A
C440        H453   1.082       .  S
N441        C442   1.354       .  A
N441        C721   1.432       .  S
C442        H443   1.082       .  S
C444        N445   1.358       .  A
C444        H454   1.081       .  S
N445        C446   1.359       .  A
N445        C745   1.438       .  S
C446        H452   1.082       .  S
C447        N448   1.352       .  A
C447        H449   1.083       .  S
N448        C450   1.363       .  A
N448        C733   1.440       .  S
C450        H451   1.080       .  S
O455       Zr467   2.444       .  S
O455        C457   1.287       .  A
O456       Zr493   2.421       .  S
O456        C457   1.284       .  A
C457        C709   1.494       .  S
O458       Zr470   2.456       .  S
O458        C460   1.291       .  A
O459       Zr494   2.459       .  S
O459       C2092   1.294       .  A
C460       O2091   1.295       .  A
C460        C685   1.513       .  S
O461       Zr470   2.437       .  S
O461        C463   1.287       .  A
O462      Zr1309   2.405   1_545  S
O462        C463   1.282       .  A
C463        C781   1.457       .  S
O464       Zr467   2.362   1_655  S
O464       C2914   1.264       .  A
O465       Zr494   2.399   1_565  S
O465        C466   1.268       .  A
C466       O2912   1.258       .  A
C466       C1358   1.419       .  S
Zr467      O1284   2.428       .  S
Zr467      O2101   2.437   1_455  S
Zr467      O1289   2.341       .  S
Zr467      O1290   2.418       .  S
Zr467      O2129   2.373   1_455  S
Zr467      O2131   2.356   1_455  S
O468      Zr1283   2.430       .  S
O468        H511   0.990   1_565  S
O469      Zr2099   2.437       .  S
O469        H510   0.990       .  S
O469        H514   0.990       .  S
Zr470       O471   2.428       .  S
Zr470       O472   2.435       .  S
Zr470       O474   2.352       .  S
Zr470       O473   2.386       .  S
Zr470       O498   2.351       .  S
Zr470       O500   2.373       .  S
O471        H512   0.990       .  S
O471        H515   0.990       .  S
O472        H505   0.990       .  S
O473      Zr1283   2.341   1_545  S
O473      Zr1309   2.371   1_545  S
O474      Zr1283   2.424   1_545  S
O474      Zr2126   2.424   1_455  S
O474        H501   0.967       .  S
O475       Zr487   2.436       .  S
O475        C477   1.287       .  A
O476      Zr1310   2.414       .  S
O476        C477   1.285       .  A
C477        C697   1.467       .  S
O478       C1296   1.268   1_565  A
O479       C2112   1.261   1_455  A
C480       O1294   1.268       .  A
C480       O2111   1.261       .  A
C480       C1344   1.436       .  S
O481       Zr490   2.442       .  S
O481        C483   1.286       .  A
O482       Zr494   2.427       .  S
O482        C483   1.287       .  A
C483        C760   1.491       .  S
O484       Zr487   2.455       .  S
O484        C486   1.290       .  A
O485      Zr2125   2.423       .  S
O485        C486   1.286       .  A
C486        C769   1.489   1_556  S
Zr487       O488   2.436       .  S
Zr487       O489   2.435       .  S
Zr487       O495   2.393       .  S
Zr487       O496   2.336       .  S
Zr487       O499   2.393       .  S
Zr487       O497   2.338       .  S
O488        H508   0.990   1_556  S
O488        H513   0.990       .  S
O489        H509   0.990       .  S
Zr490       O899   2.424   1_556  S
Zr490      O1716   2.440   1_556  S
Zr490      O1312   2.397   1_545  S
Zr490      O1311   2.366   1_545  S
Zr490      O2132   2.345       .  S
Zr490      O2130   2.389       .  S
O491       Zr898   2.425       .  S
O491        H507   0.990       .  S
O492      Zr1714   2.442   1_455  S
O492        H506   0.990       .  S
O492       H2148   0.989       .  S
Zr493      O1278   2.400       .  S
Zr493      O2117   2.410   1_455  S
Zr493      O1289   2.375       .  S
Zr493      O2128   2.400   1_455  S
Zr493      O1314   2.426       .  S
Zr493      O2131   2.365   1_455  S
Zr494      O1292   2.420   1_545  S
Zr494      O2106   2.426       .  S
Zr494      O1311   2.381   1_545  S
Zr494      O1313   2.398   1_545  S
Zr494      O2132   2.367       .  S
O495      Zr1306   2.369       .  S
O495      Zr1310   2.379       .  S
O495        H503   0.966       .  S
O496      Zr1306   2.399       .  S
O496      Zr2125   2.402       .  S
O497      Zr2099   2.376       .  S
O497      Zr1310   2.396       .  S
O498      Zr2122   2.396   1_455  S
O498      Zr1309   2.438   1_545  S
O499      Zr2099   2.354       .  S
O499      Zr2125   2.366       .  S
O499        H504   0.965       .  S
O500      Zr2122   2.342   1_455  S
O500      Zr2126   2.363   1_455  S
H516       O2124   0.989       .  S
O517       Zr529   2.478       .  S
O517        C519   1.292       .  A
O518       Zr555   2.394       .  S
O518        C519   1.277       .  A
C519        C673   1.502       .  S
O520       Zr532   2.460       .  S
O520        C522   1.291       .  A
O521       Zr556   2.409       .  S
O521       C2154   1.282       .  A
C522       O2153   1.279       .  A
C522        C652   1.463       .  S
O523       Zr532   2.434       .  S
O523        C525   1.286       .  A
O524      Zr1371   2.443   1_545  S
O524        C525   1.290       .  A
C525        C748   1.486       .  S
O526       Zr529   2.415       .  S
O526       C2976   1.267       .  A
O527       Zr556   2.382       .  S
O527        C528   1.266       .  A
C528       O2974   1.267       .  A
C528       C1296   1.434       .  S
Zr529      O1346   2.439       .  S
Zr529      O2163   2.437       .  S
Zr529      O1351   2.334       .  S
Zr529      O1352   2.386       .  S
Zr529      O2193   2.379   1_455  S
Zr529      O2191   2.328   1_455  S
O530      Zr1345   2.436       .  S
O530        H573   0.990       .  S
O531      Zr2161   2.438       .  S
O531        H572   0.990       .  S
O531        H576   0.989       .  S
Zr532       O533   2.437       .  S
Zr532       O534   2.437       .  S
Zr532       O536   2.339       .  S
Zr532       O535   2.394       .  S
Zr532       O560   2.354       .  S
Zr532       O562   2.376   1_455  S
O533        H574   0.990       .  S
O533        H577   0.990       .  S
O534        H567   0.990       .  S
O535      Zr1345   2.340       .  S
O535      Zr1371   2.374   1_545  S
O536      Zr1345   2.393       .  S
O536      Zr2188   2.408   1_455  S
O536        H563   0.966       .  S
O537       Zr549   2.437       .  S
O537        C539   1.287       .  A
O538      Zr1372   2.453       .  S
O538        C539   1.290       .  A
C539        C664   1.501       .  S
O540       Zr552   2.423   1_565  S
O540       C1358   1.269       .  A
O541       Zr555   2.394   1_655  S
O541       C2174   1.265       .  A
C542       O1356   1.270       .  A
C542       O2173   1.265       .  A
C542       C1282   1.417       .  S
O543       Zr552   2.446       .  S
O543        C545   1.286       .  A
O544       Zr556   2.416       .  S
O544        C545   1.283       .  A
C545        C724   1.479       .  S
O546       Zr549   2.454       .  S
O546        C548   1.289       .  A
O547      Zr2187   2.417       .  S
O547        C548   1.285       .  A
C548        C736   1.499       .  S
Zr549       O550   2.448       .  S
Zr549       O551   2.435       .  S
Zr549       O557   2.400       .  S
Zr549       O558   2.320       .  S
Zr549       O561   2.393       .  S
Zr549       O559   2.264       .  S
O550        H570   0.991       .  S
O550        H575   0.990       .  S
O551        H571   0.990       .  S
Zr552      O1369   2.434   1_545  S
Zr552      O2186   2.440       .  S
Zr552      O1374   2.375   1_545  S
Zr552      O1373   2.366   1_545  S
Zr552      O2194   2.363       .  S
Zr552      O2192   2.405       .  S
O553      Zr1368   2.433       .  S
O553        H569   0.990       .  S
O554      Zr2184   2.442       .  S
O554        H568   0.990       .  S
O554       H2210   0.990       .  S
Zr555      O1340   2.450       .  S
Zr555      O2179   2.413   1_455  S
Zr555      O1351   2.377       .  S
Zr555      O2190   2.388   1_455  S
Zr555      O1376   2.439       .  S
Zr555      O2193   2.383   1_455  S
Zr556      O1354   2.459       .  S
Zr556      O2168   2.415       .  S
Zr556      O1373   2.379   1_545  S
Zr556      O2194   2.368       .  S
Zr556      O1375   2.301   1_545  S
O557      Zr1368   2.371       .  S
O557      Zr1372   2.373       .  S
O557        H565   0.964       .  S
O558      Zr1368   2.374       .  S
O558      Zr2187   2.382       .  S
O559      Zr2161   2.325       .  S
O559      Zr1372   2.298       .  S
O560      Zr2184   2.404   1_455  S
O560      Zr1371   2.434   1_545  S
O560        H564   0.973       .  S
O561      Zr2161   2.377       .  S
O561      Zr2187   2.387       .  S
O561        H566   0.964       .  S
O562      Zr2184   2.368       .  S
O562      Zr2188   2.370       .  S
H578       O2186   0.991       .  S
C579        C581   1.544       .  S
C579        C583   1.540       .  S
C579        C582   1.568       .  S
C579        C628   1.587       .  S
C580        C584   1.543       .  S
C580        C586   1.530       .  S
C580        C585   1.554       .  S
C580        C637   1.588       .  S
C581        C589   1.377       .  A
C581        C584   1.407       .  A
C582        C593   1.392       .  A
C582        C585   1.418       .  A
C583        C597   1.380       .  A
C583        C586   1.402       .  A
C584        C587   1.378       .  A
C585        C591   1.379       .  A
C586        C594   1.367       .  A
C587        N588   1.360       .  A
C587        H600   1.082       .  S
N588        C589   1.361       .  A
N588        C712   1.451       .  S
C589        H590   1.079       .  S
C591        N592   1.357       .  A
C591        H601   1.081       .  S
N592        C593   1.363       .  A
N592        C688   1.446       .  S
C593        H599   1.082       .  S
C594        N595   1.352       .  A
C594        H596   1.083       .  S
N595        C597   1.354       .  A
N595        C700   1.426       .  S
C597        H598   1.082       .  S
C602        C604   1.548       .  S
C602        C606   1.556       .  S
C602        C605   1.553       .  S
C602        C640   1.585       .  S
C603        C607   1.541       .  S
C603        C609   1.549       .  S
C603        C608   1.537       .  S
C603        C625   1.589       .  S
C604        C612   1.383       .  A
C604        C607   1.400       .  A
C605        C616   1.391       .  A
C605        C608   1.402       .  A
C606        C620   1.383       .  A
C606        C609   1.422       .  A
C607        C610   1.376       .  A
C608        C614   1.364       .  A
C609        C617   1.382       .  A
C610        N611   1.364       .  A
C610        H623   1.082       .  S
N611        C612   1.363       .  A
N611        C676   1.459       .  S
C612        H613   1.077       .  S
C614        N615   1.351       .  A
C614        H624   1.082       .  S
N615        C616   1.363       .  A
N615        C649   1.443       .  S
C616        H622   1.080       .  S
C617        N618   1.356       .  A
C617        H619   1.081       .  S
N618        C620   1.355       .  A
N618        C661   1.438       .  S
C620        H621   1.082       .  S
C625        C626   1.412       .  A
C625        C630   1.431       .  A
C626        C627   1.427       .  A
C626        H631   1.080       .  S
C627        C628   1.431       .  A
C627        C634   1.443       .  S
C628        C629   1.411       .  A
C629        C630   1.421       .  A
C629        H632   1.082       .  S
C630        C633   1.445       .  S
C633        N635   1.157       .  T
C634        N636   1.158       .  T
C637        C638   1.418       .  A
C637        C642   1.428       .  A
C638        C639   1.421   1_556  A
C638        H643   1.082       .  S
C641        C642   1.425   1_554  A
C641        H644   1.079       .  S
C642        C645   1.442       .  S
C645        N647   1.157       .  T
C646        N648   1.157       .  T
C649        C650   1.411       .  A
C649        C654   1.413       .  A
C650        C651   1.393       .  A
C650        H655   1.082       .  S
C651        C652   1.402       .  A
C651        C658   1.445       .  S
C652        C653   1.404       .  A
C653        C654   1.402       .  A
C653        H656   1.085       .  S
C654        C657   1.442       .  S
C657        N659   1.158       .  T
C658       N2292   1.157       .  T
N660       C2290   1.157       .  T
C661        C662   1.398       .  A
C661        C666   1.406       .  A
C662        C663   1.403       .  A
C662        H667   1.085       .  S
C663        C664   1.422       .  A
C663       C1486   1.442       .  S
C664        C665   1.413       .  A
C665        C666   1.405       .  A
C665        H668   1.084       .  S
C666        C669   1.443       .  S
C669        N671   1.157       .  T
C670       C1479   1.443   1_545  S
C670        N672   1.157       .  T
C673        C674   1.405       .  A
C673        C678   1.421       .  A
C674        C675   1.406       .  A
C674        H679   1.085       .  S
C675        C676   1.424       .  A
C675        C682   1.441       .  S
C676        C677   1.407       .  A
C677        C678   1.400       .  A
C677        H680   1.083       .  S
C678        C681   1.446       .  S
C681        N683   1.158       .  T
C682        N684   1.157       .  T
C685        C686   1.415       .  A
C685        C690   1.425       .  A
C686        C687   1.415       .  A
C686        H691   1.084       .  S
C687        C688   1.408       .  A
C687        C694   1.442       .  S
C688        C689   1.398       .  A
C689        C690   1.404       .  A
C689        H692   1.084       .  S
C690        C693   1.443       .  S
C693        N695   1.157       .  T
C694        N696   1.157       .  T
C697        C698   1.402       .  A
C697        C702   1.413       .  A
C698        C699   1.396       .  A
C698        H703   1.085       .  S
C699        C700   1.408       .  A
C699        C706   1.444       .  S
C700        C701   1.397       .  A
C701        C702   1.397       .  A
C701        H704   1.084       .  S
C702        C705   1.444       .  S
C705        N707   1.157       .  T
C706        N708   1.157       .  T
C709        C710   1.408       .  A
C709        C714   1.416       .  A
C710        C711   1.403       .  A
C710        H715   1.085       .  S
C711        C712   1.417       .  A
C711        C718   1.443       .  S
C712        C713   1.406       .  A
C713        C714   1.399       .  A
C713        H716   1.083       .  S
C714        C717   1.442       .  S
C717        N719   1.156       .  T
C718        N720   1.158       .  T
C721        C722   1.402       .  A
C721        C726   1.404       .  A
C722        C723   1.404       .  A
C722        H727   1.084       .  S
C723        C724   1.414       .  A
C723        C730   1.444       .  S
C724        C725   1.405       .  A
C725        C726   1.398       .  A
C725        H728   1.085       .  S
C726        C729   1.442       .  S
C729        N731   1.157       .  T
C730       N1548   1.157   1_545  T
N732       C1546   1.157       .  T
C733        C734   1.401       .  A
C733        C738   1.407       .  A
C734        C735   1.396       .  A
C734        H739   1.085       .  S
C735        C736   1.421       .  A
C735        C742   1.445       .  S
C736        C737   1.414       .  A
C737        C738   1.405       .  A
C737        H740   1.084       .  S
C738        C741   1.443       .  S
C741        N743   1.157       .  T
C742        N744   1.157       .  T
C745        C746   1.400       .  A
C745        C750   1.409       .  A
C746        C747   1.401       .  A
C746        H751   1.084       .  S
C747        C748   1.416       .  A
C747        C754   1.443       .  S
C748        C749   1.407       .  A
C749        C750   1.405       .  A
C749        H752   1.085       .  S
C750        C753   1.443       .  S
C753        N755   1.157       .  T
C754        N756   1.157       .  T
C757        C758   1.403       .  A
C757        C762   1.417       .  A
C758        C759   1.397       .  A
C758        H763   1.084   1_556  S
C759        C760   1.417       .  A
C759        C766   1.445   1_556  S
C760        C761   1.407       .  A
C761        C762   1.404       .  A
C761        H764   1.085       .  S
C762        C765   1.443       .  S
C765        N767   1.158       .  T
C766       N2400   1.157       .  T
N768       C2398   1.157       .  T
C769        C770   1.409   1_554  A
C770        C771   1.401       .  A
C770        H775   1.085       .  S
C771        C772   1.404   1_556  A
C771        C778   1.442       .  S
C773        C774   1.404       .  A
C773        H776   1.084       .  S
C774        C777   1.444       .  S
C777        N779   1.157       .  T
C778        N780   1.157       .  T
C781        C782   1.400       .  A
C782        C783   1.394       .  A
C782        H787   1.084       .  S
C783        C784   1.406       .  A
C783        C790   1.444       .  S
C785        C786   1.397       .  A
C785        H788   1.084       .  S
C786        C789   1.444       .  S
C789        N791   1.157       .  T
C790        N792   1.157       .  T
C793        C794   1.415       .  A
C793        C798   1.427       .  A
C794        C795   1.419       .  A
C794        H799   1.083       .  S
C795        C796   1.425       .  A
C795        C802   1.443       .  S
C796        C797   1.414       .  A
C797        C798   1.425       .  A
C797        H800   1.080       .  S
C798        C801   1.441       .  S
C801        N803   1.158       .  T
C802        N804   1.158       .  T
C805        C806   1.413       .  A
C805        C810   1.424       .  A
C806        C807   1.419       .  A
C806        H811   1.081       .  S
C807        C808   1.427       .  A
C807        C814   1.442       .  S
C808        C809   1.416       .  A
C809        C810   1.422       .  A
C809        H812   1.080       .  S
C810        C813   1.442       .  S
C813        N815   1.157       .  T
C814        N816   1.157       .  T
C817        C819   1.553       .  S
C817        C821   1.540       .  S
C817        C820   1.544       .  S
C817       C1213   1.583       .  S
C818        C822   1.544       .  S
C818        C824   1.546       .  S
C818        C823   1.528       .  S
C818       C1201   1.580       .  S
C819        C827   1.378       .  A
C819       C1230   1.410   1_554  A
C820        C831   1.379       .  A
C820       C1231   1.406   1_554  A
C821        C835   1.378       .  A
C821       C1232   1.409   1_554  A
C822       C1227   1.410       .  A
C822        C825   1.375       .  A
C823       C1228   1.403       .  A
C823        C829   1.364       .  A
C824       C1229   1.408       .  A
C824        C832   1.376       .  A
C825        N826   1.358       .  A
C825        H838   1.081       .  S
N826       C1235   1.360       .  A
N826       C1165   1.442       .  S
C827       N1234   1.358   1_554  A
C827        H828   1.082       .  S
C829       N1238   1.351       .  A
C829        H839   1.083       .  S
N830       C1237   1.351       .  A
N830        C831   1.355   1_556  A
N830       C1600   1.423       .  S
C831        H837   1.081       .  S
C832       N1241   1.355       .  A
C832        H834   1.082       .  S
N833       C1240   1.355   1_554  A
N833        C835   1.355       .  A
N833       C1588   1.431       .  S
C835        H836   1.082       .  S
C840        C842   1.546       .  S
C840        C844   1.553       .  S
C840        C843   1.545       .  S
C840       C1204   1.580       .  S
C841        C845   1.547       .  S
C841        C847   1.532       .  S
C841        C846   1.552       .  S
C841       C1216   1.583       .  S
C842        C850   1.378       .  A
C842        C845   1.408       .  A
C843        C854   1.381       .  A
C843        C846   1.409       .  A
C844        C858   1.387       .  A
C844        C847   1.407       .  A
C845        C848   1.380       .  A
C846        C852   1.381       .  A
C847        C855   1.368       .  A
C848        N849   1.355       .  A
C848        H861   1.082       .  S
N849        C850   1.351       .  A
N849       C1129   1.429       .  S
C850        H851   1.082       .  S
C852        N853   1.358       .  A
C852        H862   1.081       .  S
N853        C854   1.359       .  A
N853       C1153   1.440       .  S
C854        H860   1.082       .  S
C855        N856   1.350       .  A
C855        H857   1.083       .  S
N856        C858   1.358       .  A
N856       C1141   1.430       .  S
C858        H859   1.081       .  S
O863       Zr875   2.445       .  S
O863        C865   1.287       .  A
O864       Zr901   2.421       .  S
O864        C865   1.283       .  A
C865       C1117   1.496       .  S
O866       Zr878   2.452       .  S
O866        C868   1.290       .  A
O867       Zr902   2.459       .  S
O867       C2500   1.294       .  A
C868       O2499   1.294       .  A
C868       C1093   1.508       .  S
O869       Zr878   2.439       .  S
O869        C871   1.287       .  A
O870        C871   1.279       .  A
C871       C1189   1.454       .  S
O872       Zr875   2.356       .  S
O872       C1690   1.259   1_455  A
O873       Zr902   2.387       .  S
O873        C874   1.267       .  A
C874       O1688   1.262       .  A
Zr875      O2509   2.437   1_455  S
Zr875      O2537   2.377   1_455  S
Zr875      O2539   2.359   1_455  S
O876        H919   0.990       .  S
O877      Zr2507   2.436       .  S
O877        H918   0.991       .  S
O877        H922   0.990       .  S
Zr878       O879   2.433       .  S
Zr878       O880   2.436       .  S
Zr878       O882   2.346       .  S
Zr878       O881   2.382       .  S
Zr878       O906   2.350       .  S
Zr878       O908   2.381       .  S
O879        H920   0.990       .  S
O879        H923   0.990       .  S
O880        H913   0.990       .  S
O882      Zr2534   2.437   1_455  S
O882        H909   0.968       .  S
O883       Zr895   2.428       .  S
O883        C885   1.286       .  A
O884        C885   1.286       .  A
C885       C1105   1.468       .  S
O886      Zr1306   2.396   1_554  S
O887      Zr1309   2.364   1_554  S
O887       C2520   1.259   1_465  A
C888       O2519   1.259   1_545  A
O889       Zr898   2.435       .  S
O889        C891   1.284       .  A
O890       Zr902   2.415       .  S
O890        C891   1.284       .  A
C891       C1168   1.479       .  S
O892       Zr895   2.444       .  S
O892        C894   1.288       .  A
O893      Zr2533   2.419       .  S
O893        C894   1.285       .  A
C894       C1177   1.482       .  S
Zr895       O896   2.435       .  S
Zr895       O897   2.434       .  S
Zr895       O903   2.395       .  S
Zr895       O904   2.330       .  S
Zr895       O907   2.395       .  S
Zr895       O905   2.335       .  S
O896        H916   0.990       .  S
O896        H921   0.990       .  S
O897        H917   0.990       .  S
Zr898      O1294   2.398       .  S
Zr898      O2940   2.441       .  S
Zr898      O2540   2.347       .  S
Zr898      O2538   2.389       .  S
O899        H915   0.990       .  S
O900      Zr2938   2.442   1_454  S
O900        H914   0.990   1_554  S
O900       H2556   0.989       .  S
Zr901      O1295   2.357       .  S
Zr901      O2525   2.424   1_455  S
Zr901      O2536   2.406   1_455  S
Zr901      O2539   2.361   1_455  S
Zr902      O2514   2.420       .  S
Zr902      O2540   2.358       .  S
O903        H911   0.965       .  S
O904      Zr2533   2.406       .  S
O905      Zr2507   2.375       .  S
O906      Zr2530   2.393   1_455  S
O906       H1318   0.960       .  S
O907      Zr2507   2.354       .  S
O907      Zr2533   2.369       .  S
O907        H912   0.965       .  S
O908      Zr2530   2.342   1_455  S
O908      Zr2534   2.365   1_455  S
H910       O1314   0.959       .  S
H924       O2532   0.990       .  S
O925       Zr937   2.467   1_565  S
O925        C927   1.291       .  A
O926       Zr963   2.392       .  S
O926        C927   1.277       .  A
C927       C1081   1.497       .  S
O928       Zr940   2.451       .  S
O928        C930   1.289       .  A
O929       Zr964   2.395       .  S
O929       C2562   1.280       .  A
C930       O2561   1.280       .  A
C930       C1060   1.460       .  S
O931       Zr940   2.432       .  S
O931        C933   1.286       .  A
O932        C933   1.291       .  A
C933       C1156   1.489       .  S
O934       Zr937   2.424       .  S
O934       C1752   1.269       .  A
O935       Zr964   2.389       .  S
O935        C936   1.267       .  A
C936       O1750   1.269       .  A
Zr937      O2571   2.437   1_545  S
Zr937      O2599   2.411   1_445  S
Zr937      O2601   2.386   1_445  S
O938        H981   0.989       .  S
O939      Zr2569   2.438   1_565  S
O939        H980   0.990       .  S
O939        H984   0.989       .  S
Zr940       O941   2.437       .  S
Zr940       O942   2.438       .  S
Zr940       O944   2.348       .  S
Zr940       O943   2.395       .  S
Zr940       O968   2.354       .  S
Zr940       O970   2.378   1_455  S
O941        H982   0.990       .  S
O941        H985   0.990       .  S
O942        H975   0.990       .  S
O944      Zr2596   2.413   1_455  S
O944        H971   0.965       .  S
O945       Zr957   2.446       .  S
O945        C947   1.288       .  A
O946        C947   1.289   1_545  A
C947       C1072   1.499       .  S
O948       Zr960   2.426       .  S
O949       Zr963   2.396   1_655  S
O949       C2582   1.267       .  A
C950       O2581   1.267       .  A
O951       Zr960   2.435       .  S
O951        C953   1.284       .  A
O952       Zr964   2.412       .  S
O952        C953   1.283       .  A
C953       C1132   1.478       .  S
O954       Zr957   2.457       .  S
O954        C956   1.290       .  A
O955      Zr2595   2.406       .  S
O955        C956   1.283       .  A
C956       C1144   1.481       .  S
Zr957       O958   2.435       .  S
Zr957       O959   2.435       .  S
Zr957       O965   2.409       .  S
Zr957       O966   2.325       .  S
Zr957       O969   2.389       .  S
Zr957       O967   2.326       .  S
O958        H978   0.990       .  S
O958        H983   0.991       .  S
O959        H979   0.990       .  S
Zr960      O2594   2.442       .  S
Zr960      O2602   2.366       .  S
Zr960      O2600   2.401       .  S
O961        H977   0.990       .  S
O962      Zr2592   2.443       .  S
O962        H976   0.990       .  S
O962       H2618   0.990       .  S
Zr963      O2587   2.405   1_455  S
Zr963      O2598   2.384   1_455  S
Zr963      O2601   2.381   1_455  S
Zr964      O2576   2.409       .  S
Zr964      O2602   2.370       .  S
O965        H973   0.965       .  S
O966      Zr2595   2.383       .  S
O967      Zr2569   2.409   1_565  S
O968      Zr2592   2.402   1_455  S
O968        H972   0.971       .  S
O969      Zr2569   2.386   1_565  S
O969      Zr2595   2.380       .  S
O969        H974   0.966       .  S
O970      Zr2592   2.366       .  S
O970      Zr2596   2.370       .  S
H986       O2594   0.991       .  S
C987        C989   1.546       .  S
C987        C991   1.536       .  S
C987        C990   1.567       .  S
C987       C1036   1.585       .  S
C988        C992   1.543       .  S
C988        C994   1.532       .  S
C988        C993   1.554       .  S
C988       C1045   1.589       .  S
C989        C997   1.379       .  A
C989        C992   1.408       .  A
C990       C1001   1.392       .  A
C990        C993   1.419       .  A
C991       C1005   1.378       .  A
C991        C994   1.401       .  A
C992        C995   1.379       .  A
C993        C999   1.379       .  A
C994       C1002   1.369       .  A
C995        N996   1.358       .  A
C995       H1008   1.082       .  S
N996        C997   1.361       .  A
N996       C1120   1.452       .  S
C997        H998   1.079       .  S
C999       N1000   1.356       .  A
C999       H1009   1.081       .  S
N1000      C1001   1.361       .  A
N1000      C1096   1.444       .  S
C1001      H1007   1.082       .  S
C1002      N1003   1.353       .  A
C1002      H1004   1.083       .  S
N1003      C1005   1.352       .  A
N1003      C1108   1.424       .  S
C1005      H1006   1.082       .  S
C1010      C1012   1.546       .  S
C1010      C1014   1.560       .  S
C1010      C1013   1.553       .  S
C1010      C1048   1.589       .  S
C1011      C1015   1.537       .  S
C1011      C1017   1.547       .  S
C1011      C1016   1.536       .  S
C1011      C1033   1.589       .  S
C1012      C1020   1.380       .  A
C1012      C1015   1.397       .  A
C1013      C1024   1.390       .  A
C1013      C1016   1.405       .  A
C1014      C1028   1.385       .  A
C1014      C1017   1.425       .  A
C1015      C1018   1.374       .  A
C1016      C1022   1.363       .  A
C1017      C1025   1.381       .  A
C1018      N1019   1.364       .  A
C1018      H1031   1.082       .  S
N1019      C1020   1.364       .  A
N1019      C1084   1.458       .  S
C1020      H1021   1.076       .  S
C1022      N1023   1.349       .  A
C1022      H1032   1.082       .  S
N1023      C1024   1.362       .  A
N1023      C1057   1.440       .  S
C1024      H1030   1.081       .  S
C1025      N1026   1.354       .  A
C1025      H1027   1.081       .  S
N1026      C1028   1.356       .  A
N1026      C1069   1.438       .  S
C1028      H1029   1.082       .  S
C1033      C1034   1.412       .  A
C1033      C1038   1.430       .  A
C1034      C1035   1.426       .  A
C1034      H1039   1.080       .  S
C1035      C1036   1.431       .  A
C1035      C1042   1.443       .  S
C1036      C1037   1.410       .  A
C1037      C1038   1.420       .  A
C1037      H1040   1.082       .  S
C1038      C1041   1.444       .  S
C1041      N1043   1.157       .  T
C1042      N1044   1.157       .  T
C1045      C1046   1.418       .  A
C1045      C1050   1.427       .  A
C1046      C1047   1.420       .  A
C1046      H1051   1.081       .  S
C1047      C1456   1.421       .  A
C1047      C1462   1.443       .  S
C1048      C1455   1.423       .  A
C1048      C1457   1.416       .  A
C1049      C1456   1.417       .  A
C1049      C1050   1.425       .  A
C1049      H1052   1.078       .  S
C1050      C1053   1.442       .  S
C1053      N1055   1.157       .  T
C1054      C1455   1.443       .  S
C1054      N1056   1.157       .  T
C1057      C1058   1.410       .  A
C1057      C1062   1.410       .  A
C1058      C1059   1.394       .  A
C1058      H1063   1.082       .  S
C1059      C1060   1.402       .  A
C1059      C1066   1.446       .  S
C1060      C1061   1.402       .  A
C1061      C1062   1.400       .  A
C1061      H1064   1.085       .  S
C1062      C1065   1.442       .  S
C1065      N1067   1.157       .  T
C1066      N2700   1.158       .  T
N1068      C2698   1.157       .  T
C1069      C1070   1.399       .  A
C1069      C1074   1.405       .  A
C1070      C1071   1.404       .  A
C1070      H1075   1.085       .  S
C1071      C1072   1.421       .  A
C1072      C1073   1.411       .  A
C1073      C1074   1.403       .  A
C1073      H1076   1.084       .  S
C1074      C1077   1.442       .  S
C1077      N1079   1.157       .  T
C1078      N1080   1.157       .  T
C1081      C1082   1.404       .  A
C1081      C1086   1.420       .  A
C1082      C1083   1.403       .  A
C1082      H1087   1.085       .  S
C1083      C1084   1.424       .  A
C1083      C1090   1.441       .  S
C1084      C1085   1.409       .  A
C1085      C1086   1.400       .  A
C1085      H1088   1.083       .  S
C1086      C1089   1.446       .  S
C1089      N1091   1.158       .  T
C1090      N1092   1.158       .  T
C1093      C1094   1.413       .  A
C1093      C1098   1.424       .  A
C1094      C1095   1.411       .  A
C1094      H1099   1.084       .  S
C1095      C1096   1.407       .  A
C1095      C1102   1.442       .  S
C1096      C1097   1.399       .  A
C1097      C1098   1.404       .  A
C1097      H1100   1.084       .  S
C1098      C1101   1.444       .  S
C1101      N1103   1.157       .  T
C1102      N1104   1.157       .  T
C1105      C1106   1.402       .  A
C1105      C1110   1.414       .  A
C1106      C1107   1.396       .  A
C1106      H1111   1.085       .  S
C1107      C1108   1.407       .  A
C1107      C1114   1.443       .  S
C1108      C1109   1.395       .  A
C1109      C1110   1.396       .  A
C1109      H1112   1.084       .  S
C1110      C1113   1.444       .  S
C1113      N1115   1.157       .  T
C1114      N1116   1.157       .  T
C1117      C1118   1.408       .  A
C1117      C1122   1.417       .  A
C1118      C1119   1.404       .  A
C1118      H1123   1.085       .  S
C1119      C1120   1.416       .  A
C1119      C1126   1.442       .  S
C1120      C1121   1.407       .  A
C1121      C1122   1.400       .  A
C1121      H1124   1.084       .  S
C1122      C1125   1.442       .  S
C1125      N1127   1.157       .  T
C1126      N1128   1.158       .  T
C1129      C1130   1.401       .  A
C1129      C1134   1.403       .  A
C1130      C1131   1.401       .  A
C1130      H1135   1.084       .  S
C1131      C1132   1.414       .  A
C1131      C1138   1.444       .  S
C1132      C1133   1.406       .  A
C1133      C1134   1.396       .  A
C1133      H1136   1.085       .  S
C1134      C1137   1.442       .  S
C1137      N1139   1.157       .  T
C1141      C1142   1.399       .  A
C1141      C1146   1.404       .  A
C1142      C1143   1.400       .  A
C1142      H1147   1.084       .  S
C1143      C1144   1.415       .  A
C1143      C1150   1.444       .  S
C1144      C1145   1.407       .  A
C1145      C1146   1.400       .  A
C1145      H1148   1.084       .  S
C1146      C1149   1.442       .  S
C1149      N1151   1.157       .  T
C1150      N1152   1.157       .  T
C1153      C1154   1.401       .  A
C1153      C1158   1.409       .  A
C1154      C1155   1.403       .  A
C1154      H1159   1.084       .  S
C1155      C1156   1.417       .  A
C1155      C1162   1.443       .  S
C1156      C1157   1.407       .  A
C1157      C1158   1.404       .  A
C1157      H1160   1.085       .  S
C1158      C1161   1.442       .  S
C1161      N1163   1.157       .  T
C1162      N1164   1.157       .  T
C1165      C1166   1.404       .  A
C1165      C1170   1.415       .  A
C1166      C1167   1.398       .  A
C1166      H1171   1.084       .  S
C1167      C1168   1.414       .  A
C1167      C1174   1.445       .  S
C1168      C1169   1.403       .  A
C1169      C1170   1.399       .  A
C1169      H1172   1.085       .  S
C1170      C1173   1.443       .  S
C1173      N1175   1.157       .  T
C1174      N2808   1.157       .  T
N1176      C2806   1.157       .  T
C1177      C1178   1.408       .  A
C1177      C1590   1.415       .  A
C1178      C1179   1.399       .  A
C1178      H1183   1.085       .  S
C1179      C1180   1.404       .  A
C1179      C1186   1.442       .  S
C1180      C1589   1.401       .  A
C1180      N1241   1.432       .  S
C1181      C1588   1.400       .  A
C1181      C1182   1.402       .  A
C1181      H1184   1.084       .  S
C1182      C1585   1.416       .  A
C1182      C1185   1.444       .  S
C1185      N1187   1.157       .  T
C1186      N1188   1.157       .  T
C1189      C1190   1.400       .  A
C1189      C1602   1.405       .  A
C1190      C1191   1.393       .  A
C1190      H1195   1.084       .  S
C1191      C1192   1.405       .  A
C1191      C1198   1.443       .  S
C1192      C1601   1.402       .  A
C1192      N1238   1.424       .  S
C1193      C1600   1.402   1_554  A
C1193      C1194   1.395       .  A
C1193      H1196   1.084       .  S
C1194      C1597   1.406   1_554  A
C1194      C1197   1.445       .  S
C1197      N1199   1.157       .  T
C1198      N1200   1.157       .  T
C1201      C1202   1.415       .  A
C1201      C1206   1.427       .  A
C1202      C1203   1.419       .  A
C1202      H1207   1.083       .  S
C1203      C1204   1.426       .  A
C1203      C1210   1.444       .  S
C1204      C1205   1.412       .  A
C1205      C1206   1.422       .  A
C1205      H1208   1.080       .  S
C1206      C1209   1.441       .  S
C1209      N1211   1.158       .  T
C1210      N1212   1.158       .  T
C1213      C1214   1.414       .  A
C1213      C1218   1.425       .  A
C1214      C1215   1.421       .  A
C1214      H1219   1.082       .  S
C1215      C1216   1.427       .  A
C1215      C1222   1.442       .  S
C1216      C1217   1.415       .  A
C1217      C1218   1.422       .  A
C1217      H1220   1.081       .  S
C1218      C1221   1.442       .  S
C1221      N1223   1.157       .  T
C1222      N1224   1.157       .  T
C1225      C1227   1.555       .  S
C1225      C1229   1.541       .  S
C1225      C1228   1.541       .  S
C1225      C1621   1.579       .  S
C1226      C1230   1.544       .  S
C1226      C1232   1.547       .  S
C1226      C1231   1.528       .  S
C1226      C1609   1.583       .  S
C1227      C1235   1.378       .  A
C1228      C1239   1.379       .  A
C1229      C1243   1.378       .  A
C1230      C1233   1.376       .  A
C1231      C1237   1.364       .  A
C1232      C1240   1.376       .  A
C1233      N1234   1.358       .  A
C1233      H1246   1.081       .  S
N1234      C1573   1.440       .  S
C1235      H1236   1.082       .  S
C1237      H1247   1.083       .  S
N1238      C1239   1.354       .  A
C1239      H1245   1.081       .  S
C1240      H1242   1.082       .  S
N1241      C1243   1.356       .  A
C1243      H1244   1.082       .  S
C1248      C1250   1.548       .  S
C1248      C1252   1.556       .  S
C1248      C1251   1.546       .  S
C1248      C1612   1.582       .  S
C1249      C1253   1.544       .  S
C1249      C1255   1.529       .  S
C1249      C1254   1.551       .  S
C1249      C1624   1.581       .  S
C1250      C1258   1.379       .  A
C1250      C1253   1.407       .  A
C1251      C1262   1.381       .  A
C1251      C1254   1.409       .  A
C1252      C1266   1.389       .  A
C1252      C1255   1.407       .  A
C1253      C1256   1.378       .  A
C1254      C1260   1.380       .  A
C1255      C1263   1.366       .  A
C1256      N1257   1.354       .  A
C1256      H1269   1.082       .  S
N1257      C1258   1.352       .  A
N1257      C1537   1.430       .  S
C1258      H1259   1.082       .  S
C1260      N1261   1.358       .  A
C1260      H1270   1.081       .  S
N1261      C1262   1.359       .  A
N1261      C1561   1.440       .  S
C1262      H1268   1.082       .  S
C1263      N1264   1.349       .  A
C1263      H1265   1.083       .  S
N1264      C1266   1.360       .  A
N1264      C1549   1.429       .  S
C1266      H1267   1.081       .  S
O1271     Zr1283   2.441       .  S
O1271      C1273   1.286       .  A
O1272     Zr1309   2.429       .  S
O1272      C1273   1.285       .  A
C1273      C1525   1.495       .  S
O1274     Zr1286   2.447       .  S
O1274      C1276   1.289       .  A
O1275     Zr1310   2.447       .  S
O1275      C2908   1.292       .  A
C1276      O2907   1.293       .  A
C1276      C1501   1.506       .  S
O1277     Zr1286   2.433       .  S
O1277      C1279   1.286       .  A
O1278      C1279   1.281       .  A
C1279      C1597   1.455       .  S
O1280     Zr1283   2.354   1_655  S
O1280      C2098   1.264       .  A
O1281     Zr1310   2.388       .  S
O1281      C1282   1.267       .  A
C1282      O2096   1.263       .  A
Zr1283     O2917   2.436   1_455  S
Zr1283     O2945   2.375   1_455  S
Zr1283     O2947   2.354   1_455  S
O1284      H1327   0.989       .  S
O1285     Zr2915   2.436       .  S
O1285      H1326   0.990       .  S
O1285      H1330   0.990       .  S
Zr1286     O1287   2.432       .  S
Zr1286     O1288   2.435       .  S
Zr1286     O1290   2.350       .  S
Zr1286     O1289   2.383       .  S
Zr1286     O1314   2.349       .  S
Zr1286     O1316   2.373       .  S
O1287      H1328   0.990       .  S
O1287      H1331   0.990       .  S
O1288      H1321   0.990       .  S
O1290     Zr2942   2.422   1_455  S
O1290      H1317   0.968       .  S
O1291     Zr1303   2.421       .  S
O1291      C1293   1.285       .  A
O1292      C1293   1.287       .  A
C1293      C1513   1.467       .  S
O1295      C2928   1.259   1_465  A
C1296      O2927   1.259   1_545  A
O1297     Zr1306   2.437       .  S
O1297      C1299   1.285       .  A
O1298     Zr1310   2.418       .  S
O1298      C1299   1.285       .  A
C1299      C1576   1.479       .  S
O1300     Zr1303   2.438       .  S
O1300      C1302   1.287       .  A
O1301     Zr2941   2.425       .  S
O1301      C1302   1.286       .  A
C1302      C1585   1.484   1_556  S
Zr1303     O1304   2.435       .  S
Zr1303     O1305   2.433       .  S
Zr1303     O1311   2.389       .  S
Zr1303     O1312   2.331       .  S
Zr1303     O1315   2.388       .  S
Zr1303     O1313   2.338       .  S
O1304      H1324   0.990       .  S
O1304      H1329   0.990   1_556  S
O1305      H1325   0.990       .  S
Zr1306     O2532   2.441   1_556  S
Zr1306     O2948   2.345       .  S
Zr1306     O2946   2.386       .  S
O1307      H1323   0.990       .  S
O1308     Zr2530   2.441   1_455  S
O1308      H1322   0.989       .  S
O1308      H2964   0.990       .  S
Zr1309     O2933   2.421   1_455  S
Zr1309     O2944   2.406   1_455  S
Zr1309     O2947   2.363   1_455  S
Zr1310     O2922   2.423       .  S
Zr1310     O2948   2.363       .  S
O1311      H1319   0.965       .  S
O1312     Zr2941   2.404       .  S
O1313     Zr2915   2.375       .  S
O1314     Zr2938   2.391   1_455  S
O1315     Zr2915   2.353       .  S
O1315     Zr2941   2.360       .  S
O1315      H1320   0.965       .  S
O1316     Zr2938   2.344   1_455  S
O1316     Zr2942   2.357   1_455  S
H1332      O2940   0.989       .  S
O1333     Zr1345   2.465   1_565  S
O1333      C1335   1.290       .  A
O1334     Zr1371   2.392       .  S
O1334      C1335   1.277       .  A
C1335      C1489   1.495       .  S
O1336     Zr1348   2.450       .  S
O1336      C1338   1.289       .  A
O1337     Zr1372   2.402       .  S
O1337      C2970   1.281       .  A
C1338      O2969   1.280       .  A
C1338      C1468   1.459       .  S
O1339     Zr1348   2.431       .  S
O1339      C1341   1.285       .  A
O1340      C1341   1.292       .  A
C1341      C1564   1.490       .  S
O1342     Zr1345   2.426       .  S
O1342      C2160   1.270       .  A
O1343     Zr1372   2.386       .  S
O1343      C1344   1.266       .  A
C1344      O2158   1.268       .  A
Zr1345     O2979   2.436   1_545  S
Zr1345     O3007   2.411   1_445  S
Zr1345     O3009   2.381   1_445  S
O1346      H1389   0.990       .  S
O1347     Zr2977   2.437   1_565  S
O1347      H1388   0.991       .  S
O1347      H1392   0.990   1_565  S
Zr1348     O1349   2.438       .  S
Zr1348     O1350   2.438       .  S
Zr1348     O1352   2.344       .  S
Zr1348     O1351   2.395       .  S
Zr1348     O1376   2.354       .  S
Zr1348     O1378   2.379   1_455  S
O1349      H1390   0.990       .  S
O1349      H1393   0.990       .  S
O1350      H1383   0.990       .  S
O1352     Zr3004   2.415   1_455  S
O1352      H1379   0.964       .  S
O1353     Zr1365   2.447       .  S
O1353      C1355   1.288       .  A
O1354      C1355   1.291   1_545  A
C1355      C1480   1.506       .  S
O1356     Zr1368   2.428       .  S
O1357     Zr1371   2.404   1_655  S
O1357      C2990   1.265       .  A
C1358      O2989   1.267       .  A
O1359     Zr1368   2.441       .  S
O1359      C1361   1.285       .  A
O1360     Zr1372   2.417       .  S
O1360      C1361   1.284       .  A
C1361      C1540   1.481       .  S
O1362     Zr1365   2.461       .  S
O1362      C1364   1.290       .  A
O1363     Zr3003   2.398       .  S
O1363      C1364   1.281       .  A
C1364      C1552   1.475       .  S
Zr1365     O1366   2.445       .  S
Zr1365     O1367   2.433       .  S
Zr1365     O1373   2.406       .  S
Zr1365     O1374   2.327       .  S
Zr1365     O1377   2.392       .  S
Zr1365     O1375   2.262       .  S
O1366      H1386   0.990       .  S
O1366      H1391   0.991       .  S
O1367      H1387   0.990       .  S
Zr1368     O3002   2.442       .  S
Zr1368     O3010   2.367       .  S
Zr1368     O3008   2.406       .  S
O1369      H1385   0.990       .  S
O1370     Zr3000   2.443       .  S
O1370      H1384   0.990       .  S
O1370      H3026   0.990       .  S
Zr1371     O2995   2.396   1_455  S
Zr1371     O3006   2.385   1_455  S
Zr1371     O3009   2.379   1_455  S
Zr1372     O2984   2.411       .  S
Zr1372     O3010   2.370       .  S
O1373      H1381   0.963       .  S
O1374     Zr3003   2.388       .  S
O1375     Zr2977   2.328   1_565  S
O1376     Zr3000   2.402   1_455  S
O1376      H1380   0.976       .  S
O1377     Zr2977   2.383   1_565  S
O1377     Zr3003   2.388       .  S
O1377      H1382   0.964       .  S
O1378     Zr3000   2.366       .  S
O1378     Zr3004   2.375       .  S
H1394      O3002   0.990       .  S
C1395      C1397   1.545       .  S
C1395      C1399   1.538       .  S
C1395      C1398   1.566       .  S
C1395      C1444   1.584       .  S
C1396      C1400   1.542       .  S
C1396      C1402   1.530       .  S
C1396      C1401   1.557       .  S
C1396      C1453   1.592       .  S
C1397      C1405   1.382       .  A
C1397      C1400   1.412       .  A
C1398      C1409   1.392       .  A
C1398      C1401   1.422       .  A
C1399      C1413   1.380       .  A
C1399      C1402   1.399       .  A
C1400      C1403   1.379       .  A
C1401      C1407   1.380       .  A
C1402      C1410   1.368       .  A
C1403      N1404   1.356       .  A
C1403      H1416   1.082       .  S
N1404      C1405   1.358       .  A
N1404      C1528   1.449       .  S
C1405      H1406   1.080       .  S
C1407      N1408   1.356       .  A
C1407      H1417   1.081       .  S
N1408      C1409   1.361       .  A
N1408      C1504   1.445       .  S
C1409      H1415   1.082       .  S
C1410      N1411   1.352       .  A
C1410      H1412   1.083       .  S
N1411      C1413   1.353       .  A
N1411      C1516   1.425       .  S
C1413      H1414   1.082       .  S
C1418      C1420   1.546       .  S
C1418      C1422   1.560       .  S
C1418      C1421   1.549       .  S
C1418      C1456   1.585       .  S
C1419      C1423   1.536       .  S
C1419      C1425   1.547       .  S
C1419      C1424   1.535       .  S
C1419      C1441   1.587       .  S
C1420      C1428   1.381       .  A
C1420      C1423   1.396       .  A
C1421      C1432   1.387       .  A
C1421      C1424   1.403       .  A
C1422      C1436   1.385       .  A
C1422      C1425   1.426       .  A
C1423      C1426   1.372       .  A
C1424      C1430   1.361       .  A
C1425      C1433   1.381       .  A
C1426      N1427   1.363       .  A
C1426      H1439   1.082       .  S
N1427      C1428   1.364       .  A
N1427      C1492   1.457       .  S
C1428      H1429   1.076       .  S
C1430      N1431   1.350       .  A
C1430      H1440   1.082       .  S
N1431      C1432   1.360       .  A
N1431      C1465   1.438       .  S
C1432      H1438   1.081       .  S
C1433      N1434   1.353       .  A
C1433      H1435   1.080       .  S
N1434      C1436   1.356       .  A
N1434      C1477   1.439       .  S
C1436      H1437   1.082       .  S
C1441      C1442   1.411       .  A
C1441      C1446   1.430       .  A
C1442      C1443   1.424       .  A
C1442      H1447   1.079       .  S
C1443      C1444   1.431       .  A
C1443      C1450   1.443       .  S
C1444      C1445   1.411       .  A
C1445      C1446   1.421       .  A
C1445      H1448   1.082       .  S
C1446      C1449   1.445       .  S
C1449      N1451   1.157       .  T
C1450      N1452   1.157       .  T
C1453      C1454   1.420       .  A
C1453      C1458   1.426       .  A
C1454      C1455   1.423   1_556  A
C1454      H1459   1.081       .  S
C1457      C1458   1.426   1_554  A
C1457      H1460   1.079       .  S
C1458      C1461   1.442       .  S
C1461      N1463   1.157       .  T
C1462      N1464   1.157       .  T
C1465      C1466   1.408       .  A
C1465      C1470   1.412       .  A
C1466      C1467   1.390       .  A
C1466      H1471   1.083       .  S
C1467      C1468   1.401       .  A
C1467      C1474   1.445       .  S
C1468      C1469   1.404       .  A
C1469      C1470   1.401       .  A
C1469      H1472   1.085       .  S
C1470      C1473   1.443       .  S
C1473      N1475   1.158       .  T
C1474      N3108   1.157       .  T
N1476      C3106   1.157       .  T
C1477      C1478   1.398       .  A
C1477      C1482   1.405       .  A
C1478      C1479   1.404       .  A
C1478      H1483   1.085       .  S
C1479      C1480   1.423       .  A
C1480      C1481   1.415       .  A
C1481      C1482   1.406       .  A
C1481      H1484   1.084       .  S
C1482      C1485   1.443       .  S
C1485      N1487   1.157       .  T
C1486      N1488   1.157       .  T
C1489      C1490   1.405       .  A
C1489      C1494   1.419       .  A
C1490      C1491   1.402       .  A
C1490      H1495   1.085       .  S
C1491      C1492   1.423       .  A
C1491      C1498   1.441       .  S
C1492      C1493   1.408       .  A
C1493      C1494   1.398       .  A
C1493      H1496   1.083       .  S
C1494      C1497   1.446       .  S
C1497      N1499   1.158       .  T
C1498      N1500   1.158       .  T
C1501      C1502   1.412       .  A
C1501      C1506   1.423       .  A
C1502      C1503   1.411       .  A
C1502      H1507   1.084       .  S
C1503      C1504   1.408       .  A
C1503      C1510   1.441       .  S
C1504      C1505   1.399       .  A
C1505      C1506   1.403       .  A
C1505      H1508   1.084       .  S
C1506      C1509   1.444       .  S
C1509      N1511   1.157       .  T
C1510      N1512   1.157       .  T
C1513      C1514   1.400       .  A
C1513      C1518   1.415       .  A
C1514      C1515   1.394       .  A
C1514      H1519   1.085       .  S
C1515      C1516   1.408       .  A
C1515      C1522   1.443       .  S
C1516      C1517   1.397       .  A
C1517      C1518   1.397       .  A
C1517      H1520   1.084       .  S
C1518      C1521   1.445       .  S
C1521      N1523   1.157       .  T
C1522      N1524   1.157       .  T
C1525      C1526   1.410       .  A
C1525      C1530   1.415       .  A
C1526      C1527   1.406       .  A
C1526      H1531   1.085       .  S
C1527      C1528   1.416       .  A
C1527      C1534   1.443       .  S
C1528      C1529   1.405       .  A
C1529      C1530   1.398       .  A
C1529      H1532   1.084       .  S
C1530      C1533   1.441       .  S
C1533      N1535   1.156       .  T
C1534      N1536   1.158       .  T
C1537      C1538   1.401       .  A
C1537      C1542   1.403       .  A
C1538      C1539   1.402       .  A
C1538      H1543   1.084       .  S
C1539      C1540   1.415       .  A
C1539      C1546   1.444       .  S
C1540      C1541   1.406       .  A
C1541      C1542   1.396       .  A
C1541      H1544   1.084       .  S
C1542      C1545   1.442       .  S
C1545      N1547   1.157       .  T
C1549      C1550   1.401       .  A
C1549      C1554   1.406       .  A
C1550      C1551   1.401       .  A
C1550      H1555   1.084       .  S
C1551      C1552   1.413       .  A
C1551      C1558   1.444       .  S
C1552      C1553   1.404       .  A
C1553      C1554   1.397       .  A
C1553      H1556   1.085       .  S
C1554      C1557   1.442       .  S
C1557      N1559   1.157       .  T
C1558      N1560   1.157       .  T
C1561      C1562   1.400       .  A
C1561      C1566   1.409       .  A
C1562      C1563   1.402       .  A
C1562      H1567   1.084       .  S
C1563      C1564   1.418       .  A
C1563      C1570   1.443       .  S
C1564      C1565   1.407       .  A
C1565      C1566   1.405       .  A
C1565      H1568   1.084       .  S
C1566      C1569   1.442       .  S
C1569      N1571   1.157       .  T
C1570      N1572   1.157       .  T
C1573      C1574   1.403       .  A
C1573      C1578   1.413       .  A
C1574      C1575   1.398       .  A
C1574      H1579   1.084   1_556  S
C1575      C1576   1.414       .  A
C1575      C1582   1.445   1_556  S
C1576      C1577   1.404       .  A
C1577      C1578   1.399       .  A
C1577      H1580   1.085       .  S
C1578      C1581   1.443       .  S
C1581      N1583   1.157       .  T
C1582      N3216   1.157       .  T
N1584      C3214   1.157       .  T
C1585      C1586   1.408   1_554  A
C1586      C1587   1.400       .  A
C1586      H1591   1.085       .  S
C1587      C1588   1.403   1_556  A
C1587      C1594   1.442       .  S
C1589      C1590   1.402       .  A
C1589      H1592   1.084       .  S
C1590      C1593   1.444       .  S
C1593      N1595   1.157       .  T
C1594      N1596   1.157       .  T
C1597      C1598   1.400       .  A
C1598      C1599   1.394       .  A
C1598      H1603   1.084       .  S
C1599      C1600   1.405       .  A
C1599      C1606   1.443       .  S
C1601      C1602   1.396       .  A
C1601      H1604   1.084       .  S
C1602      C1605   1.444       .  S
C1605      N1607   1.157       .  T
C1606      N1608   1.157       .  T
C1609      C1610   1.415       .  A
C1609      C1614   1.427       .  A
C1610      C1611   1.420       .  A
C1610      H1615   1.083       .  S
C1611      C1612   1.426       .  A
C1611      C1618   1.444       .  S
C1612      C1613   1.412       .  A
C1613      C1614   1.423       .  A
C1613      H1616   1.081       .  S
C1614      C1617   1.441       .  S
C1617      N1619   1.158       .  T
C1618      N1620   1.158       .  T
C1621      C1622   1.411       .  A
C1621      C1626   1.426       .  A
C1622      C1623   1.418       .  A
C1622      H1627   1.082       .  S
C1623      C1624   1.427       .  A
C1623      C1630   1.440       .  S
C1624      C1625   1.414       .  A
C1625      C1626   1.422       .  A
C1625      H1628   1.081       .  S
C1626      C1629   1.442       .  S
C1629      N1631   1.157       .  T
C1630      N1632   1.156       .  T
C1633      C1635   1.558       .  S
C1633      C1637   1.544       .  S
C1633      C1636   1.546       .  S
C1633      C2029   1.585       .  S
C1634      C1638   1.544       .  S
C1634      C1640   1.547       .  S
C1634      C1639   1.529       .  S
C1634      C2017   1.583       .  S
C1635      C1643   1.381       .  A
C1635      C2046   1.410   1_554  A
C1636      C1647   1.381       .  A
C1636      C2047   1.405   1_554  A
C1637      C1651   1.380       .  A
C1637      C2048   1.409   1_554  A
C1638      C2043   1.409       .  A
C1638      C1641   1.376       .  A
C1639      C2044   1.404       .  A
C1639      C1645   1.364       .  A
C1640      C2045   1.409       .  A
C1640      C1648   1.376       .  A
C1641      N1642   1.356       .  A
C1641      H1654   1.082       .  S
N1642      C2051   1.357       .  A
N1642      C1981   1.437       .  S
C1643      N2050   1.360   1_554  A
C1643      H1644   1.082       .  S
C1645      N2054   1.352       .  A
C1645      H1655   1.083       .  S
N1646      C2053   1.351       .  A
N1646      C1647   1.356   1_556  A
N1646      C2416   1.426       .  S
C1647      H1653   1.081       .  S
C1648      N2057   1.356       .  A
C1648      H1650   1.082       .  S
N1649      C2056   1.355   1_554  A
N1649      C1651   1.357       .  A
N1649      C2404   1.434       .  S
C1651      H1652   1.082       .  S
C1656      C1658   1.553       .  S
C1656      C1660   1.558       .  S
C1656      C1659   1.547       .  S
C1656      C2020   1.587       .  S
C1657      C1661   1.541       .  S
C1657      C1663   1.529       .  S
C1657      C1662   1.549       .  S
C1657      C2032   1.587       .  S
C1658      C1666   1.380       .  A
C1658      C1661   1.409       .  A
C1659      C1670   1.381       .  A
C1659      C1662   1.411       .  A
C1660      C1674   1.392       .  A
C1660      C1663   1.406       .  A
C1661      C1664   1.377       .  A
C1662      C1668   1.379       .  A
C1663      C1671   1.363       .  A
C1664      N1665   1.353       .  A
C1664      H1677   1.082       .  S
N1665      C1666   1.353       .  A
N1665      C1945   1.429       .  S
C1666      H1667   1.082       .  S
C1668      N1669   1.358       .  A
C1668      H1678   1.081       .  S
N1669      C1670   1.359       .  A
N1669      C1969   1.439       .  S
C1670      H1676   1.082       .  S
C1671      N1672   1.352       .  A
C1671      H1673   1.083       .  S
N1672      C1674   1.364       .  A
N1672      C1957   1.439       .  S
C1674      H1675   1.081       .  S
O1679     Zr1691   2.436       .  S
O1679      C1681   1.285       .  A
O1680     Zr1717   2.426       .  S
O1680      C1681   1.285       .  A
C1681      C1933   1.492       .  S
O1682     Zr1694   2.453       .  S
O1682      C1684   1.290       .  A
O1683     Zr1718   2.454   1_455  S
C1684      C1909   1.509       .  S
O1685     Zr1694   2.436       .  S
O1685      C1687   1.286       .  A
O1686     Zr2533   2.404   1_545  S
O1686      C1687   1.281       .  A
C1687      C2005   1.458       .  S
O1688     Zr1691   2.354       .  S
O1689     Zr1718   2.391   1_565  S
O1689      C1690   1.266       .  A
C1690      C2582   1.419       .  S
Zr1691     O2508   2.428       .  S
Zr1691     O2513   2.344       .  S
Zr1691     O2514   2.423       .  S
O1692     Zr2507   2.428       .  S
O1692      H1735   0.990       .  S
O1693      H1734   0.990       .  S
O1693      H1738   0.990       .  S
Zr1694     O1695   2.432       .  S
Zr1694     O1696   2.434       .  S
Zr1694     O1698   2.347       .  S
Zr1694     O1697   2.386       .  S
Zr1694     O1722   2.351       .  S
Zr1694     O1724   2.376       .  S
O1695      H1736   0.990       .  S
O1695      H1739   0.990       .  S
O1696      H1729   0.989       .  S
O1697     Zr2507   2.341   1_545  S
O1697     Zr2533   2.375   1_545  S
O1698     Zr2507   2.428   1_545  S
O1698      H1725   0.969       .  S
O1699     Zr1711   2.421       .  S
O1699      C1701   1.284       .  A
O1700     Zr2534   2.428       .  S
O1700      C1701   1.288       .  A
C1701      C1921   1.470       .  S
O1702     Zr2122   2.392   1_564  S
O1702      C2520   1.268   1_565  A
O1703     Zr2125   2.375   1_554  S
C1704      O2518   1.267       .  A
C1704      C2568   1.440   1_655  S
O1705     Zr1714   2.445       .  S
O1705      C1707   1.287       .  A
O1706     Zr1718   2.413       .  S
O1706      C1707   1.283       .  A
C1707      C1984   1.480       .  S
O1708     Zr1711   2.453       .  S
O1708      C1710   1.289       .  A
O1709      C1710   1.285       .  A
C1710      C1993   1.483       .  S
Zr1711     O1712   2.435       .  S
Zr1711     O1713   2.434       .  S
Zr1711     O1719   2.401       .  S
Zr1711     O1720   2.327       .  S
Zr1711     O1723   2.389       .  S
Zr1711     O1721   2.338       .  S
O1712      H1732   0.990       .  S
O1712      H1737   0.990       .  S
O1713      H1733   0.990       .  S
Zr1714     O2110   2.389   1_545  S
Zr1714     O2939   2.425       .  S
Zr1714     O2536   2.402   1_545  S
Zr1714     O2535   2.368       .  S
O1715     Zr2938   2.425   1_554  S
O1715      H1731   0.990       .  S
O1716      H1730   0.990   1_554  S
Zr1717     O2502   2.411       .  S
Zr1717     O2111   2.378       .  S
Zr1717     O2513   2.380       .  S
Zr1717     O2538   2.434       .  S
Zr1718     O2516   2.423   1_545  S
Zr1718     O2535   2.381       .  S
Zr1718     O2537   2.398   1_545  S
O1719     Zr2530   2.364       .  S
O1719     Zr2534   2.380       .  S
O1719      H1727   0.966       .  S
O1720     Zr2530   2.401       .  S
O1721     Zr2534   2.404       .  S
O1722     Zr2533   2.435   1_545  S
O1722      H2134   0.964       .  S
O1723      H1728   0.965       .  S
H1726      O2130   0.965       .  S
O1741     Zr1753   2.468       .  S
O1741      C1743   1.291       .  A
O1742     Zr1779   2.388       .  S
O1742      C1743   1.276       .  A
C1743      C1897   1.495       .  S
O1744     Zr1756   2.451       .  S
O1744      C1746   1.290       .  A
O1745     Zr1780   2.397   1_455  S
C1746      C1876   1.459       .  S
O1747     Zr1756   2.430       .  S
O1747      C1749   1.285       .  A
O1748     Zr2595   2.446   1_545  S
O1748      C1749   1.291       .  A
C1749      C1972   1.490       .  S
O1750     Zr1753   2.419       .  S
O1751     Zr1780   2.387   1_455  S
O1751      C1752   1.267       .  A
C1752      C2520   1.437   1_455  S
Zr1753     O2570   2.438       .  S
Zr1753     O2575   2.339       .  S
Zr1753     O2576   2.383       .  S
O1754     Zr2569   2.435       .  S
O1754      H1797   0.990       .  S
O1755      H1796   0.990       .  S
O1755      H1800   0.990       .  S
Zr1756     O1757   2.436       .  S
Zr1756     O1758   2.437       .  S
Zr1756     O1760   2.339       .  S
Zr1756     O1759   2.392       .  S
Zr1756     O1784   2.356       .  S
Zr1756     O1786   2.375       .  S
O1757      H1798   0.990       .  S
O1757      H1801   0.990       .  S
O1758      H1791   0.990       .  S
O1759     Zr2569   2.345       .  S
O1759     Zr2595   2.374   1_545  S
O1760     Zr2569   2.391       .  S
O1760      H1787   0.966       .  S
O1761     Zr1773   2.440       .  S
O1761      C1763   1.287       .  A
O1762     Zr2596   2.448       .  S
O1762      C1763   1.289       .  A
C1763      C1888   1.500       .  S
O1764     Zr1776   2.422   1_565  S
O1764      C2582   1.269       .  A
O1765     Zr1779   2.401       .  S
C1766      O2580   1.270       .  A
C1766      C2506   1.416       .  S
O1767     Zr1776   2.447       .  S
O1767      C1769   1.287       .  A
O1768     Zr1780   2.406       .  S
O1768      C1769   1.282       .  A
C1769      C1948   1.475       .  S
O1770     Zr1773   2.449       .  S
O1770      C1772   1.288       .  A
O1771      C1772   1.285       .  A
C1772      C1960   1.497       .  S
Zr1773     O1774   2.446       .  S
Zr1773     O1775   2.434       .  S
Zr1773     O1781   2.397       .  S
Zr1773     O1782   2.326       .  S
Zr1773     O1785   2.392       .  S
Zr1773     O1783   2.260       .  S
O1774      H1794   0.990       .  S
O1774      H1799   0.990       .  S
O1775      H1795   0.990       .  S
Zr1776     O2593   2.434   1_545  S
Zr1776     O2598   2.377   1_545  S
Zr1776     O2597   2.365   1_545  S
O1777     Zr2592   2.435       .  S
O1777      H1793   0.990       .  S
O1778      H1792   0.990       .  S
Zr1779     O2564   2.448       .  S
Zr1779     O2575   2.381       .  S
Zr1779     O2600   2.436       .  S
Zr1780     O2578   2.443       .  S
Zr1780     O2597   2.378   1_545  S
Zr1780     O2599   2.396   1_545  S
O1781     Zr2592   2.369       .  S
O1781     Zr2596   2.375       .  S
O1781      H1789   0.964       .  S
O1782     Zr2592   2.377       .  S
O1783     Zr2596   2.295       .  S
O1784     Zr2595   2.432   1_545  S
O1784      H1788   0.967       .  S
O1785      H1790   0.964       .  S
C1803      C1805   1.546       .  S
C1803      C1807   1.543       .  S
C1803      C1806   1.567       .  S
C1803      C1852   1.591       .  S
C1804      C1808   1.543       .  S
C1804      C1810   1.530       .  S
C1804      C1809   1.557       .  S
C1804      C1861   1.591       .  S
C1805      C1813   1.381       .  A
C1805      C1808   1.410       .  A
C1806      C1817   1.392       .  A
C1806      C1809   1.420       .  A
C1807      C1821   1.382       .  A
C1807      C1810   1.402       .  A
C1808      C1811   1.379       .  A
C1809      C1815   1.381       .  A
C1810      C1818   1.368       .  A
C1811      N1812   1.357       .  A
C1811      H1824   1.082       .  S
N1812      C1813   1.360       .  A
N1812      C1936   1.450       .  S
C1813      H1814   1.080       .  S
C1815      N1816   1.357       .  A
C1815      H1825   1.081       .  S
N1816      C1817   1.362       .  A
N1816      C1912   1.447       .  S
C1817      H1823   1.082       .  S
C1818      N1819   1.351       .  A
C1818      H1820   1.083       .  S
N1819      C1821   1.355       .  A
N1819      C1924   1.427       .  S
C1821      H1822   1.081       .  S
C1826      C1828   1.542       .  S
C1826      C1830   1.556       .  S
C1826      C1829   1.550       .  S
C1826      C1864   1.586       .  S
C1827      C1831   1.541       .  S
C1827      C1833   1.550       .  S
C1827      C1832   1.535       .  S
C1827      C1849   1.594       .  S
C1828      C1836   1.378       .  A
C1828      C1831   1.399       .  A
C1829      C1840   1.387       .  A
C1829      C1832   1.403       .  A
C1830      C1844   1.383       .  A
C1830      C1833   1.421       .  A
C1831      C1834   1.372       .  A
C1832      C1838   1.362       .  A
C1833      C1841   1.380       .  A
C1834      N1835   1.365       .  A
C1834      H1847   1.082       .  S
N1835      C1836   1.361       .  A
N1835      C1900   1.453       .  S
C1836      H1837   1.077       .  S
C1838      N1839   1.351       .  A
C1838      H1848   1.082       .  S
N1839      C1840   1.362       .  A
N1839      C1873   1.441       .  S
C1840      H1846   1.080       .  S
C1841      N1842   1.355       .  A
C1841      H1843   1.080       .  S
N1842      C1844   1.357       .  A
N1842      C1885   1.438       .  S
C1844      H1845   1.082       .  S
C1849      C1850   1.412       .  A
C1849      C1854   1.431       .  A
C1850      C1851   1.428       .  A
C1850      H1855   1.079       .  S
C1851      C1852   1.431       .  A
C1851      C1858   1.442       .  S
C1852      C1853   1.413       .  A
C1853      C1854   1.424       .  A
C1853      H1856   1.082       .  S
C1854      C1857   1.444       .  S
C1857      N1859   1.157       .  T
C1858      N1860   1.158       .  T
C1861      C1862   1.420       .  A
C1861      C1866   1.428       .  A
C1862      C1863   1.422       .  A
C1862      H1867   1.081       .  S
C1863      C2272   1.423       .  A
C1863      C2278   1.444       .  S
C1864      C2271   1.422       .  A
C1864      C2273   1.415       .  A
C1865      C2272   1.414       .  A
C1865      C1866   1.424       .  A
C1865      H1868   1.078       .  S
C1866      C1869   1.441       .  S
C1869      N1871   1.157       .  T
C1870      C2271   1.443       .  S
C1870      N1872   1.157       .  T
C1873      C1874   1.410       .  A
C1873      C1878   1.413       .  A
C1874      C1875   1.392       .  A
C1874      H1879   1.083       .  S
C1875      C1876   1.402       .  A
C1875      C1882   1.446       .  S
C1876      C1877   1.402       .  A
C1877      C1878   1.400       .  A
C1877      H1880   1.085       .  S
C1878      C1881   1.443       .  S
C1881      N1883   1.158       .  T
C1885      C1886   1.399       .  A
C1885      C1890   1.405       .  A
C1886      C1887   1.403       .  A
C1886      H1891   1.085       .  S
C1887      C1888   1.422       .  A
C1887      C2710   1.443       .  S
C1888      C1889   1.412       .  A
C1889      C1890   1.404       .  A
C1889      H1892   1.084       .  S
C1890      C1893   1.442       .  S
C1893      N1895   1.157       .  T
C1894      C2703   1.443   1_545  S
C1894      N1896   1.157       .  T
C1897      C1898   1.405       .  A
C1897      C1902   1.421       .  A
C1898      C1899   1.403       .  A
C1898      H1903   1.085       .  S
C1899      C1900   1.424       .  A
C1899      C1906   1.442       .  S
C1900      C1901   1.404       .  A
C1901      C1902   1.395       .  A
C1901      H1904   1.083       .  S
C1902      C1905   1.446       .  S
C1905      N1907   1.158       .  T
C1906      N1908   1.158       .  T
C1909      C1910   1.413       .  A
C1909      C1914   1.424       .  A
C1910      C1911   1.412       .  A
C1910      H1915   1.084       .  S
C1911      C1912   1.409       .  A
C1911      C1918   1.441       .  S
C1912      C1913   1.400       .  A
C1913      C1914   1.405       .  A
C1913      H1916   1.084       .  S
C1914      C1917   1.444       .  S
C1917      N1919   1.157       .  T
C1918      N1920   1.157       .  T
C1921      C1922   1.401       .  A
C1921      C1926   1.415       .  A
C1922      C1923   1.397       .  A
C1922      H1927   1.085       .  S
C1923      C1924   1.409       .  A
C1923      C1930   1.443       .  S
C1924      C1925   1.396       .  A
C1925      C1926   1.398       .  A
C1925      H1928   1.084       .  S
C1926      C1929   1.445       .  S
C1929      N1931   1.157       .  T
C1930      N1932   1.157       .  T
C1933      C1934   1.408       .  A
C1933      C1938   1.414       .  A
C1934      C1935   1.404       .  A
C1934      H1939   1.085       .  S
C1935      C1936   1.416       .  A
C1935      C1942   1.443       .  S
C1936      C1937   1.406       .  A
C1937      C1938   1.399       .  A
C1937      H1940   1.084       .  S
C1938      C1941   1.441       .  S
C1941      N1943   1.156       .  T
C1942      N1944   1.158       .  T
C1945      C1946   1.402       .  A
C1945      C1950   1.403       .  A
C1946      C1947   1.403       .  A
C1946      H1951   1.084       .  S
C1947      C1948   1.413       .  A
C1947      C1954   1.444       .  S
C1948      C1949   1.405       .  A
C1949      C1950   1.396       .  A
C1949      H1952   1.085       .  S
C1950      C1953   1.442       .  S
C1953      N1955   1.157       .  T
C1954      N2772   1.157   1_545  T
N1956      C2770   1.157       .  T
C1957      C1958   1.401       .  A
C1957      C1962   1.407       .  A
C1958      C1959   1.395       .  A
C1958      H1963   1.085       .  S
C1959      C1960   1.420       .  A
C1959      C1966   1.444       .  S
C1960      C1961   1.414       .  A
C1961      C1962   1.405       .  A
C1961      H1964   1.084       .  S
C1962      C1965   1.442       .  S
C1965      N1967   1.157       .  T
C1966      N1968   1.157       .  T
C1969      C1970   1.400       .  A
C1969      C1974   1.409       .  A
C1970      C1971   1.402       .  A
C1970      H1975   1.084       .  S
C1971      C1972   1.418       .  A
C1971      C1978   1.444       .  S
C1972      C1973   1.407       .  A
C1973      C1974   1.404       .  A
C1973      H1976   1.085       .  S
C1974      C1977   1.442       .  S
C1977      N1979   1.157       .  T
C1978      N1980   1.157       .  T
C1981      C1982   1.401       .  A
C1981      C1986   1.411       .  A
C1982      C1983   1.397       .  A
C1982      H1987   1.084       .  S
C1983      C1984   1.414       .  A
C1983      C1990   1.444       .  S
C1984      C1985   1.406       .  A
C1985      C1986   1.401       .  A
C1985      H1988   1.084       .  S
C1986      C1989   1.444       .  S
C1989      N1991   1.157       .  T
C1993      C1994   1.408       .  A
C1993      C2406   1.413       .  A
C1994      C1995   1.400       .  A
C1994      H1999   1.085       .  S
C1995      C1996   1.405       .  A
C1995      C2002   1.443       .  S
C1996      C2405   1.402       .  A
C1996      N2057   1.434       .  S
C1997      C2404   1.403       .  A
C1997      C1998   1.404       .  A
C1997      H2000   1.084       .  S
C1998      C2401   1.412   1_554  A
C1998      C2001   1.443       .  S
C2001      N2003   1.157       .  T
C2002      N2004   1.157       .  T
C2005      C2006   1.400       .  A
C2005      C2418   1.406       .  A
C2006      C2007   1.393       .  A
C2006      H2011   1.085       .  S
C2007      C2008   1.407       .  A
C2007      C2014   1.443       .  S
C2008      C2417   1.403       .  A
C2008      N2054   1.427       .  S
C2009      C2416   1.403   1_554  A
C2009      C2010   1.397       .  A
C2009      H2012   1.084       .  S
C2010      C2413   1.406   1_554  A
C2010      C2013   1.444       .  S
C2013      N2015   1.157       .  T
C2014      N2016   1.157       .  T
C2017      C2018   1.413       .  A
C2017      C2022   1.427       .  A
C2018      C2019   1.419       .  A
C2018      H2023   1.083       .  S
C2019      C2020   1.428       .  A
C2019      C2026   1.443       .  S
C2020      C2021   1.415       .  A
C2021      C2022   1.426       .  A
C2021      H2024   1.080       .  S
C2022      C2025   1.442       .  S
C2025      N2027   1.158       .  T
C2026      N2028   1.157       .  T
C2029      C2030   1.412       .  A
C2029      C2034   1.426       .  A
C2030      C2031   1.420       .  A
C2030      H2035   1.082       .  S
C2031      C2032   1.429       .  A
C2031      C2038   1.442       .  S
C2032      C2033   1.417       .  A
C2033      C2034   1.426       .  A
C2033      H2036   1.081       .  S
C2034      C2037   1.442       .  S
C2037      N2039   1.158       .  T
C2038      N2040   1.157       .  T
C2041      C2043   1.552       .  S
C2041      C2045   1.543       .  S
C2041      C2044   1.544       .  S
C2041      C2437   1.578       .  S
C2042      C2046   1.542       .  S
C2042      C2048   1.546       .  S
C2042      C2047   1.529       .  S
C2042      C2425   1.582       .  S
C2043      C2051   1.378       .  A
C2044      C2055   1.381       .  A
C2045      C2059   1.381       .  A
C2046      C2049   1.376       .  A
C2047      C2053   1.366       .  A
C2048      C2056   1.375       .  A
C2049      N2050   1.357       .  A
C2049      H2062   1.081       .  S
N2050      C2389   1.443       .  S
C2051      H2052   1.082       .  S
C2053      H2063   1.083       .  S
N2054      C2055   1.356       .  A
C2055      H2061   1.081       .  S
C2056      H2058   1.081       .  S
N2057      C2059   1.357       .  A
C2059      H2060   1.082       .  S
C2064      C2066   1.554       .  S
C2064      C2068   1.559       .  S
C2064      C2067   1.548       .  S
C2064      C2428   1.581       .  S
C2065      C2069   1.539       .  S
C2065      C2071   1.528       .  S
C2065      C2070   1.547       .  S
C2065      C2440   1.577       .  S
C2066      C2074   1.380       .  A
C2066      C2069   1.407       .  A
C2067      C2078   1.382       .  A
C2067      C2070   1.408       .  A
C2068      C2082   1.394       .  A
C2068      C2071   1.402       .  A
C2069      C2072   1.377       .  A
C2070      C2076   1.378       .  A
C2071      C2079   1.362       .  A
C2072      N2073   1.353       .  A
C2072      H2085   1.082       .  S
N2073      C2074   1.354       .  A
N2073      C2353   1.430       .  S
C2074      H2075   1.082       .  S
C2076      N2077   1.357       .  A
C2076      H2086   1.081       .  S
N2077      C2078   1.360       .  A
N2077      C2377   1.439       .  S
C2078      H2084   1.082       .  S
C2079      N2080   1.353       .  A
C2079      H2081   1.083       .  S
N2080      C2082   1.365       .  A
N2080      C2365   1.444       .  S
C2082      H2083   1.079       .  S
O2087     Zr2099   2.444       .  S
O2087      C2089   1.287       .  A
O2088     Zr2125   2.420       .  S
O2088      C2089   1.283       .  A
C2089      C2341   1.494       .  S
O2090     Zr2102   2.446       .  S
O2090      C2092   1.289       .  A
O2091     Zr2126   2.461   1_455  S
C2092      C2317   1.507       .  S
O2093     Zr2102   2.433       .  S
O2093      C2095   1.286       .  A
O2094     Zr2941   2.406   1_545  S
O2094      C2095   1.282       .  A
C2095      C2413   1.456       .  S
O2096     Zr2099   2.356       .  S
O2097     Zr2126   2.383   1_565  S
O2097      C2098   1.266       .  A
C2098      C2990   1.417       .  S
Zr2099     O2916   2.430       .  S
Zr2099     O2921   2.341       .  S
Zr2099     O2922   2.421       .  S
O2100     Zr2915   2.430       .  S
O2100      H2143   0.990   1_565  S
O2101      H2142   0.989       .  S
O2101      H2146   0.990       .  S
Zr2102     O2103   2.433       .  S
Zr2102     O2104   2.435       .  S
Zr2102     O2106   2.343       .  S
Zr2102     O2105   2.384       .  S
Zr2102     O2130   2.348       .  S
Zr2102     O2132   2.376       .  S
O2103      H2144   0.990       .  S
O2103      H2147   0.990       .  S
O2104      H2137   0.990       .  S
O2105     Zr2915   2.339   1_545  S
O2105     Zr2941   2.373   1_545  S
O2106     Zr2915   2.424   1_545  S
O2106      H2133   0.968       .  S
O2107     Zr2119   2.437       .  S
O2107      C2109   1.287       .  A
O2108     Zr2942   2.409       .  S
O2108      C2109   1.285       .  A
C2109      C2329   1.462       .  S
O2110      C2928   1.268   1_565  A
C2112      O2926   1.267       .  A
C2112      C2976   1.435   1_655  S
O2113     Zr2122   2.451       .  S
O2113      C2115   1.288       .  A
O2114     Zr2126   2.415       .  S
O2114      C2115   1.284       .  A
C2115      C2392   1.486       .  S
O2116     Zr2119   2.460       .  S
O2116      C2118   1.291       .  A
O2117      C2118   1.283       .  A
C2118      C2401   1.481       .  S
Zr2119     O2120   2.433       .  S
Zr2119     O2121   2.435       .  S
Zr2119     O2127   2.402       .  S
Zr2119     O2128   2.338       .  S
Zr2119     O2131   2.389       .  S
Zr2119     O2129   2.337       .  S
O2120      H2140   0.990       .  S
O2120      H2145   0.990   1_556  S
O2121      H2141   0.990       .  S
Zr2122     O2531   2.423   1_556  S
Zr2122     O2944   2.400   1_545  S
Zr2122     O2943   2.364   1_545  S
O2123     Zr2530   2.424       .  S
O2123      H2139   0.990       .  S
O2124      H2138   0.990       .  S
Zr2125     O2910   2.401       .  S
Zr2125     O2921   2.379       .  S
Zr2125     O2946   2.431       .  S
Zr2126     O2924   2.419   1_545  S
Zr2126     O2943   2.382   1_545  S
Zr2126     O2945   2.401   1_545  S
O2127     Zr2938   2.366       .  S
O2127     Zr2942   2.383       .  S
O2127      H2135   0.966       .  S
O2128     Zr2938   2.399       .  S
O2129     Zr2942   2.399       .  S
O2130     Zr2941   2.434   1_545  S
O2131      H2136   0.965       .  S
O2149     Zr2161   2.472       .  S
O2149      C2151   1.291       .  A
O2150     Zr2187   2.387       .  S
O2150      C2151   1.276       .  A
C2151      C2305   1.497       .  S
O2152     Zr2164   2.449       .  S
O2152      C2154   1.289       .  A
O2153     Zr2188   2.392   1_455  S
C2154      C2284   1.466       .  S
O2155     Zr2164   2.433       .  S
O2155      C2157   1.286       .  A
O2156     Zr3003   2.455   1_545  S
O2156      C2157   1.293       .  A
C2157      C2380   1.494       .  S
O2158     Zr2161   2.417       .  S
O2159     Zr2188   2.397   1_455  S
O2159      C2160   1.268       .  A
C2160      C2928   1.440   1_455  S
Zr2161     O2978   2.440       .  S
Zr2161     O2983   2.341       .  S
Zr2161     O2984   2.388       .  S
O2162     Zr2977   2.438       .  S
O2162      H2205   0.990       .  S
O2163      H2204   0.991       .  S
O2163      H2208   0.990       .  S
Zr2164     O2165   2.436       .  S
Zr2164     O2166   2.438       .  S
Zr2164     O2168   2.341       .  S
Zr2164     O2167   2.394       .  S
Zr2164     O2192   2.355       .  S
Zr2164     O2194   2.382       .  S
O2165      H2206   0.990       .  S
O2165      H2209   0.990       .  S
O2166      H2199   0.990       .  S
O2167     Zr2977   2.336       .  S
O2167     Zr3003   2.374   1_545  S
O2168     Zr2977   2.394       .  S
O2168      H2195   0.965       .  S
O2169     Zr2181   2.440       .  S
O2169      C2171   1.287       .  A
O2170     Zr3004   2.456       .  S
O2170      C2171   1.290       .  A
C2171      C2296   1.505       .  S
O2172     Zr2184   2.430   1_565  S
O2172      C2990   1.271       .  A
O2173     Zr2187   2.399       .  S
C2174      O2988   1.271       .  A
C2174      C2914   1.419       .  S
O2175     Zr2184   2.441       .  S
O2175      C2177   1.285       .  A
O2176     Zr2188   2.409       .  S
O2176      C2177   1.282       .  A
C2177      C2356   1.471       .  S
O2178     Zr2181   2.453       .  S
O2178      C2180   1.288       .  A
O2179      C2180   1.284       .  A
C2180      C2368   1.497       .  S
Zr2181     O2182   2.446       .  S
Zr2181     O2183   2.433       .  S
Zr2181     O2189   2.401       .  S
Zr2181     O2190   2.328       .  S
Zr2181     O2193   2.393       .  S
Zr2181     O2191   2.262       .  S
O2182      H2202   0.990       .  S
O2182      H2207   0.990       .  S
O2183      H2203   0.990       .  S
Zr2184     O3001   2.434   1_545  S
Zr2184     O3006   2.374   1_545  S
Zr2184     O3005   2.364   1_545  S
O2185     Zr3000   2.434       .  S
O2185      H2201   0.990       .  S
O2186      H2200   0.989       .  S
Zr2187     O2972   2.457       .  S
Zr2187     O2983   2.381       .  S
Zr2187     O3008   2.438       .  S
Zr2188     O2986   2.438       .  S
Zr2188     O3005   2.381   1_545  S
Zr2188     O3007   2.395   1_545  S
O2189     Zr3000   2.369       .  S
O2189     Zr3004   2.376       .  S
O2189      H2197   0.963       .  S
O2190     Zr3000   2.380       .  S
O2191     Zr3004   2.298       .  S
O2192     Zr3003   2.432   1_545  S
O2192      H2196   0.953       .  S
O2193      H2198   0.964       .  S
C2211      C2213   1.543       .  S
C2211      C2215   1.541       .  S
C2211      C2214   1.563       .  S
C2211      C2260   1.582       .  S
C2212      C2216   1.543       .  S
C2212      C2218   1.528       .  S
C2212      C2217   1.556       .  S
C2212      C2269   1.586       .  S
C2213      C2221   1.379       .  A
C2213      C2216   1.404       .  A
C2214      C2225   1.389       .  A
C2214      C2217   1.418       .  A
C2215      C2229   1.381       .  A
C2215      C2218   1.401       .  A
C2216      C2219   1.378       .  A
C2217      C2223   1.379       .  A
C2218      C2226   1.366       .  A
C2219      N2220   1.360       .  A
C2219      H2232   1.082       .  S
N2220      C2221   1.362       .  A
N2220      C2344   1.450       .  S
C2221      H2222   1.080       .  S
C2223      N2224   1.357       .  A
C2223      H2233   1.081       .  S
N2224      C2225   1.360       .  A
N2224      C2320   1.442       .  S
C2225      H2231   1.082       .  S
C2226      N2227   1.352       .  A
C2226      H2228   1.083       .  S
N2227      C2229   1.355       .  A
N2227      C2332   1.426       .  S
C2229      H2230   1.082       .  S
C2234      C2236   1.542       .  S
C2234      C2238   1.562       .  S
C2234      C2237   1.554       .  S
C2234      C2272   1.585       .  S
C2235      C2239   1.540       .  S
C2235      C2241   1.548       .  S
C2235      C2240   1.537       .  S
C2235      C2257   1.586       .  S
C2236      C2244   1.380       .  A
C2236      C2239   1.395       .  A
C2237      C2248   1.390       .  A
C2237      C2240   1.403       .  A
C2238      C2252   1.386       .  A
C2238      C2241   1.424       .  A
C2239      C2242   1.374       .  A
C2240      C2246   1.364       .  A
C2241      C2249   1.384       .  A
C2242      N2243   1.365       .  A
C2242      H2255   1.082       .  S
N2243      C2244   1.363       .  A
N2243      C2308   1.458       .  S
C2244      H2245   1.076       .  S
C2246      N2247   1.351       .  A
C2246      H2256   1.081       .  S
N2247      C2248   1.363       .  A
N2247      C2281   1.444       .  S
C2248      H2254   1.080       .  S
C2249      N2250   1.354       .  A
C2249      H2251   1.081       .  S
N2250      C2252   1.356       .  A
N2250      C2293   1.441       .  S
C2252      H2253   1.082       .  S
C2257      C2258   1.412       .  A
C2257      C2262   1.430       .  A
C2258      C2259   1.425       .  A
C2258      H2263   1.080       .  S
C2259      C2260   1.430       .  A
C2259      C2266   1.443       .  S
C2260      C2261   1.411       .  A
C2261      C2262   1.419       .  A
C2261      H2264   1.082       .  S
C2262      C2265   1.445       .  S
C2265      N2267   1.157       .  T
C2266      N2268   1.158       .  T
C2269      C2270   1.418       .  A
C2269      C2274   1.427       .  A
C2270      C2271   1.421   1_556  A
C2270      H2275   1.082       .  S
C2273      C2274   1.425   1_554  A
C2273      H2276   1.079       .  S
C2274      C2277   1.442       .  S
C2277      N2279   1.158       .  T
C2278      N2280   1.158       .  T
C2281      C2282   1.412       .  A
C2281      C2286   1.413       .  A
C2282      C2283   1.395       .  A
C2282      H2287   1.082       .  S
C2283      C2284   1.403       .  A
C2283      C2290   1.446       .  S
C2284      C2285   1.403       .  A
C2285      C2286   1.402       .  A
C2285      H2288   1.085       .  S
C2286      C2289   1.442       .  S
C2289      N2291   1.157       .  T
C2293      C2294   1.400       .  A
C2293      C2298   1.405       .  A
C2294      C2295   1.406       .  A
C2294      H2299   1.084       .  S
C2295      C2296   1.423       .  A
C2295      C3118   1.443       .  S
C2296      C2297   1.413       .  A
C2297      C2298   1.404       .  A
C2297      H2300   1.084       .  S
C2298      C2301   1.442       .  S
C2301      N2303   1.157       .  T
C2302      C3111   1.443   1_545  S
C2302      N2304   1.157       .  T
C2305      C2306   1.404       .  A
C2305      C2310   1.420       .  A
C2306      C2307   1.405       .  A
C2306      H2311   1.085       .  S
C2307      C2308   1.426       .  A
C2307      C2314   1.441       .  S
C2308      C2309   1.407       .  A
C2309      C2310   1.398       .  A
C2309      H2312   1.083       .  S
C2310      C2313   1.447       .  S
C2313      N2315   1.158       .  T
C2314      N2316   1.158       .  T
C2317      C2318   1.413       .  A
C2317      C2322   1.424       .  A
C2318      C2319   1.412       .  A
C2318      H2323   1.084       .  S
C2319      C2320   1.407       .  A
C2319      C2326   1.442       .  S
C2320      C2321   1.397       .  A
C2321      C2322   1.402       .  A
C2321      H2324   1.085       .  S
C2322      C2325   1.444       .  S
C2325      N2327   1.157       .  T
C2326      N2328   1.157       .  T
C2329      C2330   1.399       .  A
C2329      C2334   1.411       .  A
C2330      C2331   1.393       .  A
C2330      H2335   1.085       .  S
C2331      C2332   1.408       .  A
C2331      C2338   1.443       .  S
C2332      C2333   1.399       .  A
C2333      C2334   1.399       .  A
C2333      H2336   1.084       .  S
C2334      C2337   1.444       .  S
C2337      N2339   1.157       .  T
C2338      N2340   1.157       .  T
C2341      C2342   1.408       .  A
C2341      C2346   1.417       .  A
C2342      C2343   1.403       .  A
C2342      H2347   1.085       .  S
C2343      C2344   1.415       .  A
C2343      C2350   1.443       .  S
C2344      C2345   1.406       .  A
C2345      C2346   1.400       .  A
C2345      H2348   1.084       .  S
C2346      C2349   1.442       .  S
C2349      N2351   1.157       .  T
C2350      N2352   1.158       .  T
C2353      C2354   1.403       .  A
C2353      C2358   1.404       .  A
C2354      C2355   1.403       .  A
C2354      H2359   1.084       .  S
C2355      C2356   1.412       .  A
C2355      C2362   1.445       .  S
C2356      C2357   1.403       .  A
C2357      C2358   1.395       .  A
C2357      H2360   1.085       .  S
C2358      C2361   1.442       .  S
C2361      N2363   1.157       .  T
C2362      N3180   1.158   1_545  T
N2364      C3178   1.157       .  T
C2365      C2366   1.404       .  A
C2365      C2370   1.410       .  A
C2366      C2367   1.395       .  A
C2366      H2371   1.084       .  S
C2367      C2368   1.418       .  A
C2367      C2374   1.444       .  S
C2368      C2369   1.414       .  A
C2369      C2370   1.405       .  A
C2369      H2372   1.084       .  S
C2370      C2373   1.442       .  S
C2373      N2375   1.157       .  T
C2374      N2376   1.157       .  T
C2377      C2378   1.398       .  A
C2377      C2382   1.409       .  A
C2378      C2379   1.402       .  A
C2378      H2383   1.085       .  S
C2379      C2380   1.420       .  A
C2379      C2386   1.443       .  S
C2380      C2381   1.408       .  A
C2381      C2382   1.407       .  A
C2381      H2384   1.085       .  S
C2382      C2385   1.442       .  S
C2385      N2387   1.157       .  T
C2386      N2388   1.157       .  T
C2389      C2390   1.402       .  A
C2389      C2394   1.414       .  A
C2390      C2391   1.399       .  A
C2390      H2395   1.084   1_556  S
C2391      C2392   1.415       .  A
C2391      C2398   1.444   1_556  S
C2392      C2393   1.407       .  A
C2393      C2394   1.403       .  A
C2393      H2396   1.085       .  S
C2394      C2397   1.444       .  S
C2397      N2399   1.158       .  T
C2401      C2402   1.406       .  A
C2402      C2403   1.397       .  A
C2402      H2407   1.085       .  S
C2403      C2404   1.406   1_556  A
C2403      C2410   1.443       .  S
C2405      C2406   1.404       .  A
C2405      H2408   1.084       .  S
C2406      C2409   1.443       .  S
C2409      N2411   1.157       .  T
C2410      N2412   1.157       .  T
C2413      C2414   1.400       .  A
C2414      C2415   1.393       .  A
C2414      H2419   1.085       .  S
C2415      C2416   1.406       .  A
C2415      C2422   1.443       .  S
C2417      C2418   1.398       .  A
C2417      H2420   1.084       .  S
C2418      C2421   1.444       .  S
C2421      N2423   1.157       .  T
C2422      N2424   1.157       .  T
C2425      C2426   1.415       .  A
C2425      C2430   1.428       .  A
C2426      C2427   1.418       .  A
C2426      H2431   1.083       .  S
C2427      C2428   1.425       .  A
C2427      C2434   1.443       .  S
C2428      C2429   1.412       .  A
C2429      C2430   1.423       .  A
C2429      H2432   1.079       .  S
C2430      C2433   1.441       .  S
C2433      N2435   1.158       .  T
C2434      N2436   1.158       .  T
C2437      C2438   1.413       .  A
C2437      C2442   1.424       .  A
C2438      C2439   1.417       .  A
C2438      H2443   1.081       .  S
C2439      C2440   1.427       .  A
C2439      C2446   1.443       .  S
C2440      C2441   1.416       .  A
C2441      C2442   1.421       .  A
C2441      H2444   1.081       .  S
C2442      C2445   1.442       .  S
C2445      N2447   1.157       .  T
C2446      N2448   1.158       .  T
C2449      C2451   1.557       .  S
C2449      C2453   1.541       .  S
C2449      C2452   1.542       .  S
C2449      C2845   1.579       .  S
C2450      C2454   1.548       .  S
C2450      C2456   1.548       .  S
C2450      C2455   1.527       .  S
C2450      C2833   1.583       .  S
C2451      C2459   1.380       .  A
C2451      C2862   1.409   1_554  A
C2452      C2463   1.380       .  A
C2452      C2863   1.403   1_554  A
C2453      C2467   1.380       .  A
C2453      C2864   1.408   1_554  A
C2454      C2859   1.409       .  A
C2454      C2457   1.379       .  A
C2455      C2860   1.404       .  A
C2455      C2461   1.364       .  A
C2456      C2861   1.410       .  A
C2456      C2464   1.377       .  A
C2457      N2458   1.359       .  A
C2457      H2470   1.082       .  S
N2458      C2867   1.361       .  A
N2458      C2797   1.446       .  S
C2459      N2866   1.361   1_554  A
C2459      H2460   1.081       .  S
C2461      N2870   1.351       .  A
C2461      H2471   1.083       .  S
N2462      C2869   1.352       .  A
N2462      C2463   1.355   1_556  A
N2462      C3232   1.424       .  S
C2463      H2469   1.081       .  S
C2464      N2873   1.356       .  A
C2464      H2466   1.081       .  S
N2465      C2872   1.356   1_554  A
N2465      C2467   1.356       .  A
N2465      C3220   1.433       .  S
C2467      H2468   1.082       .  S
C2472      C2474   1.552       .  S
C2472      C2476   1.555       .  S
C2472      C2475   1.547       .  S
C2472      C2836   1.583       .  S
C2473      C2477   1.543       .  S
C2473      C2479   1.531       .  S
C2473      C2478   1.549       .  S
C2473      C2848   1.580       .  S
C2474      C2482   1.381       .  A
C2474      C2477   1.408       .  A
C2475      C2486   1.381       .  A
C2475      C2478   1.409       .  A
C2476      C2490   1.389       .  A
C2476      C2479   1.406       .  A
C2477      C2480   1.379       .  A
C2478      C2484   1.379       .  A
C2479      C2487   1.369       .  A
C2480      N2481   1.353       .  A
C2480      H2493   1.082       .  S
N2481      C2482   1.354       .  A
N2481      C2761   1.431       .  S
C2482      H2483   1.082       .  S
C2484      N2485   1.358       .  A
C2484      H2494   1.081       .  S
N2485      C2486   1.359       .  A
N2485      C2785   1.439       .  S
C2486      H2492   1.082       .  S
C2487      N2488   1.351       .  A
C2487      H2489   1.083       .  S
N2488      C2490   1.360       .  A
N2488      C2773   1.432       .  S
C2490      H2491   1.081       .  S
O2495     Zr2507   2.447       .  S
O2495      C2497   1.288       .  A
O2496     Zr2533   2.419       .  S
O2496      C2497   1.283       .  A
C2497      C2749   1.493       .  S
O2498     Zr2510   2.461       .  S
O2498      C2500   1.292       .  A
O2499     Zr2534   2.458   1_455  S
C2500      C2725   1.514       .  S
O2501     Zr2510   2.435       .  S
O2501      C2503   1.287       .  A
O2502      C2503   1.283       .  A
C2503      C2821   1.458       .  S
O2504     Zr2507   2.358       .  S
O2505     Zr2534   2.385       .  S
O2505      C2506   1.264       .  A
O2508      H2551   0.991       .  S
O2509      H2550   0.990       .  S
O2509      H2554   0.990       .  S
Zr2510     O2511   2.432       .  S
Zr2510     O2512   2.436       .  S
Zr2510     O2514   2.349       .  S
Zr2510     O2513   2.391       .  S
Zr2510     O2538   2.356       .  S
Zr2510     O2540   2.371       .  S
O2511      H2552   0.990       .  S
O2511      H2555   0.990       .  S
O2512      H2545   0.990       .  S
O2514      H2541   0.968       .  S
O2515     Zr2527   2.433       .  S
O2515      C2517   1.286       .  A
O2516      C2517   1.286       .  A
C2517      C2737   1.470       .  S
O2518     Zr2938   2.395   1_554  S
O2519     Zr2941   2.360   1_554  S
O2521     Zr2530   2.450       .  S
O2521      C2523   1.287       .  A
O2522     Zr2534   2.429       .  S
O2522      C2523   1.286       .  A
C2523      C2800   1.491       .  S
O2524     Zr2527   2.447       .  S
O2524      C2526   1.289       .  A
O2525      C2526   1.286       .  A
C2526      C2809   1.487       .  S
Zr2527     O2528   2.435       .  S
Zr2527     O2529   2.432       .  S
Zr2527     O2535   2.393   1_565  S
Zr2527     O2536   2.341       .  S
Zr2527     O2539   2.392       .  S
Zr2527     O2537   2.336       .  S
O2528      H2548   0.990       .  S
O2528      H2553   0.990       .  S
O2529      H2549   0.990       .  S
Zr2530     O2926   2.396       .  S
O2531      H2547   0.990       .  S
O2532      H2546   0.990   1_554  S
Zr2533     O2927   2.369       .  S
O2535      H2543   0.965   1_545  S
O2538      H2950   0.959       .  S
O2539      H2544   0.965       .  S
H2542      O2946   0.960       .  S
O2557     Zr2569   2.459   1_565  S
O2557      C2559   1.289       .  A
O2558     Zr2595   2.397       .  S
O2558      C2559   1.278       .  A
C2559      C2713   1.496       .  S
O2560     Zr2572   2.452       .  S
O2560      C2562   1.289       .  A
O2561     Zr2596   2.397   1_455  S
C2562      C2692   1.458       .  S
O2563     Zr2572   2.429       .  S
O2563      C2565   1.285       .  A
O2564      C2565   1.291       .  A
C2565      C2788   1.488       .  S
O2566     Zr2569   2.429       .  S
O2567     Zr2596   2.385   1_455  S
O2567      C2568   1.267       .  A
O2570      H2613   0.990       .  S
O2571      H2612   0.991       .  S
O2571      H2616   0.990       .  S
Zr2572     O2573   2.436       .  S
Zr2572     O2574   2.437       .  S
Zr2572     O2576   2.344       .  S
Zr2572     O2575   2.394       .  S
Zr2572     O2600   2.357       .  S
Zr2572     O2602   2.376       .  S
O2573      H2614   0.989       .  S
O2573      H2617   0.991       .  S
O2574      H2607   0.990       .  S
O2576      H2603   0.964       .  S
O2577     Zr2589   2.450       .  S
O2577      C2579   1.289       .  A
O2578      C2579   1.288   1_545  A
C2579      C2704   1.501       .  S
O2580     Zr2592   2.429       .  S
O2581     Zr2595   2.400       .  S
O2583     Zr2592   2.443       .  S
O2583      C2585   1.286       .  A
O2584     Zr2596   2.415       .  S
O2584      C2585   1.283       .  A
C2585      C2764   1.476       .  S
O2586     Zr2589   2.461       .  S
O2586      C2588   1.291       .  A
O2587      C2588   1.283       .  A
C2588      C2776   1.486       .  S
Zr2589     O2590   2.435       .  S
Zr2589     O2591   2.435       .  S
Zr2589     O2597   2.403       .  S
Zr2589     O2598   2.324       .  S
Zr2589     O2601   2.398       .  S
Zr2589     O2599   2.332       .  S
O2590      H2610   0.990       .  S
O2590      H2615   0.990       .  S
O2591      H2611   0.990       .  S
O2593      H2609   0.990       .  S
O2594      H2608   0.989       .  S
O2597      H2605   0.964       .  S
O2600      H2604   0.955       .  S
O2601      H2606   0.966       .  S
C2619      C2621   1.547       .  S
C2619      C2623   1.543       .  S
C2619      C2622   1.570       .  S
C2619      C2668   1.585       .  S
C2620      C2624   1.543       .  S
C2620      C2626   1.529       .  S
C2620      C2625   1.554       .  S
C2620      C2677   1.587       .  S
C2621      C2629   1.381       .  A
C2621      C2624   1.409       .  A
C2622      C2633   1.394       .  A
C2622      C2625   1.417       .  A
C2623      C2637   1.384       .  A
C2623      C2626   1.400       .  A
C2624      C2627   1.379       .  A
C2625      C2631   1.380       .  A
C2626      C2634   1.367       .  A
C2627      N2628   1.358       .  A
C2627      H2640   1.082       .  S
N2628      C2629   1.361       .  A
N2628      C2752   1.451       .  S
C2629      H2630   1.080       .  S
C2631      N2632   1.357       .  A
C2631      H2641   1.081       .  S
N2632      C2633   1.363       .  A
N2632      C2728   1.448       .  S
C2633      H2639   1.082       .  S
C2634      N2635   1.351       .  A
C2634      H2636   1.083       .  S
N2635      C2637   1.356       .  A
N2635      C2740   1.428       .  S
C2637      H2638   1.081       .  S
C2642      C2644   1.546       .  S
C2642      C2646   1.561       .  S
C2642      C2645   1.556       .  S
C2642      C2680   1.589       .  S
C2643      C2647   1.536       .  S
C2643      C2649   1.547       .  S
C2643      C2648   1.533       .  S
C2643      C2665   1.588       .  S
C2644      C2652   1.382       .  A
C2644      C2647   1.398       .  A
C2645      C2656   1.391       .  A
C2645      C2648   1.404       .  A
C2646      C2660   1.385       .  A
C2646      C2649   1.424       .  A
C2647      C2650   1.372       .  A
C2648      C2654   1.361       .  A
C2649      C2657   1.380       .  A
C2650      N2651   1.362       .  A
C2650      H2663   1.082       .  S
N2651      C2652   1.363       .  A
N2651      C2716   1.452       .  S
C2652      H2653   1.079       .  S
C2654      N2655   1.349       .  A
C2654      H2664   1.082       .  S
N2655      C2656   1.363       .  A
N2655      C2689   1.439       .  S
C2656      H2662   1.080       .  S
C2657      N2658   1.354       .  A
C2657      H2659   1.081       .  S
N2658      C2660   1.357       .  A
N2658      C2701   1.439       .  S
C2660      H2661   1.082       .  S
C2665      C2666   1.412       .  A
C2665      C2670   1.430       .  A
C2666      C2667   1.426       .  A
C2666      H2671   1.080       .  S
C2667      C2668   1.431       .  A
C2667      C2674   1.443       .  S
C2668      C2669   1.411       .  A
C2669      C2670   1.420       .  A
C2669      H2672   1.081       .  S
C2670      C2673   1.444       .  S
C2673      N2675   1.157       .  T
C2674      N2676   1.158       .  T
C2677      C2678   1.419       .  A
C2677      C2682   1.427       .  A
C2678      C2679   1.421       .  A
C2678      H2683   1.082       .  S
C2679      C3088   1.421       .  A
C2679      C3094   1.443       .  S
C2680      C3087   1.422       .  A
C2680      C3089   1.416   1_554  A
C2681      C3088   1.415       .  A
C2681      C2682   1.425       .  A
C2681      H2684   1.078       .  S
C2682      C2685   1.442       .  S
C2685      N2687   1.157       .  T
C2686      C3087   1.442       .  S
C2686      N2688   1.157       .  T
C2689      C2690   1.410       .  A
C2689      C2694   1.410       .  A
C2690      C2691   1.392       .  A
C2690      H2695   1.082       .  S
C2691      C2692   1.401       .  A
C2691      C2698   1.446       .  S
C2692      C2693   1.403       .  A
C2693      C2694   1.401       .  A
C2693      H2696   1.085       .  S
C2694      C2697   1.442       .  S
C2697      N2699   1.157       .  T
C2701      C2702   1.399       .  A
C2701      C2706   1.405       .  A
C2702      C2703   1.404       .  A
C2702      H2707   1.085       .  S
C2703      C2704   1.423       .  A
C2704      C2705   1.412       .  A
C2705      C2706   1.404       .  A
C2705      H2708   1.084       .  S
C2706      C2709   1.442       .  S
C2709      N2711   1.157       .  T
C2710      N2712   1.157       .  T
C2713      C2714   1.406       .  A
C2713      C2718   1.420       .  A
C2714      C2715   1.402       .  A
C2714      H2719   1.085       .  S
C2715      C2716   1.420       .  A
C2715      C2722   1.441       .  S
C2716      C2717   1.406       .  A
C2717      C2718   1.398       .  A
C2717      H2720   1.084       .  S
C2718      C2721   1.446       .  S
C2721      N2723   1.158       .  T
C2722      N2724   1.157       .  T
C2725      C2726   1.415       .  A
C2725      C2730   1.424       .  A
C2726      C2727   1.414       .  A
C2726      H2731   1.084       .  S
C2727      C2728   1.409       .  A
C2727      C2734   1.442       .  S
C2728      C2729   1.398       .  A
C2729      C2730   1.405       .  A
C2729      H2732   1.084       .  S
C2730      C2733   1.442       .  S
C2733      N2735   1.157       .  T
C2734      N2736   1.157       .  T
C2737      C2738   1.401       .  A
C2737      C2742   1.414       .  A
C2738      C2739   1.397       .  A
C2738      H2743   1.084       .  S
C2739      C2740   1.409       .  A
C2739      C2746   1.443       .  S
C2740      C2741   1.397       .  A
C2741      C2742   1.399       .  A
C2741      H2744   1.084       .  S
C2742      C2745   1.444       .  S
C2745      N2747   1.157       .  T
C2746      N2748   1.157       .  T
C2749      C2750   1.407       .  A
C2749      C2754   1.416       .  A
C2750      C2751   1.403       .  A
C2750      H2755   1.085       .  S
C2751      C2752   1.416       .  A
C2751      C2758   1.442       .  S
C2752      C2753   1.407       .  A
C2753      C2754   1.400       .  A
C2753      H2756   1.084       .  S
C2754      C2757   1.442       .  S
C2757      N2759   1.157       .  T
C2758      N2760   1.158       .  T
C2761      C2762   1.402       .  A
C2761      C2766   1.405       .  A
C2762      C2763   1.403       .  A
C2762      H2767   1.084       .  S
C2763      C2764   1.413       .  A
C2763      C2770   1.444       .  S
C2764      C2765   1.404       .  A
C2765      C2766   1.398       .  A
C2765      H2768   1.085       .  S
C2766      C2769   1.442       .  S
C2769      N2771   1.157       .  T
C2773      C2774   1.400       .  A
C2773      C2778   1.404       .  A
C2774      C2775   1.400       .  A
C2774      H2779   1.084       .  S
C2775      C2776   1.415       .  A
C2775      C2782   1.443       .  S
C2776      C2777   1.409       .  A
C2777      C2778   1.401       .  A
C2777      H2780   1.085       .  S
C2778      C2781   1.442       .  S
C2781      N2783   1.157       .  T
C2782      N2784   1.157       .  T
C2785      C2786   1.399       .  A
C2785      C2790   1.410       .  A
C2786      C2787   1.401       .  A
C2786      H2791   1.084       .  S
C2787      C2788   1.417       .  A
C2787      C2794   1.442       .  S
C2788      C2789   1.406       .  A
C2789      C2790   1.405       .  A
C2789      H2792   1.085       .  S
C2790      C2793   1.442       .  S
C2793      N2795   1.157       .  T
C2794      N2796   1.156       .  T
C2797      C2798   1.403       .  A
C2797      C2802   1.415       .  A
C2798      C2799   1.402       .  A
C2798      H2803   1.084       .  S
C2799      C2800   1.416       .  A
C2799      C2806   1.444       .  S
C2800      C2801   1.407       .  A
C2801      C2802   1.405       .  A
C2801      H2804   1.085       .  S
C2802      C2805   1.443       .  S
C2805      N2807   1.157       .  T
C2809      C2810   1.408       .  A
C2809      C3222   1.416       .  A
C2810      C2811   1.399       .  A
C2810      H2815   1.085       .  S
C2811      C2812   1.403       .  A
C2811      C2818   1.442       .  S
C2812      C3221   1.402       .  A
C2812      N2873   1.434       .  S
C2813      C3220   1.400       .  A
C2813      C2814   1.402       .  A
C2813      H2816   1.084       .  S
C2814      C3217   1.416       .  A
C2814      C2817   1.444       .  S
C2817      N2819   1.157       .  T
C2818      N2820   1.157       .  T
C2821      C2822   1.400       .  A
C2821      C3234   1.408       .  A
C2822      C2823   1.393       .  A
C2822      H2827   1.085       .  S
C2823      C2824   1.406       .  A
C2823      C2830   1.443       .  S
C2824      C3233   1.403       .  A
C2824      N2870   1.427       .  S
C2825      C3232   1.403   1_554  A
C2825      C2826   1.398       .  A
C2825      H2828   1.084       .  S
C2826      C3229   1.406   1_554  A
C2826      C2829   1.445       .  S
C2829      N2831   1.157       .  T
C2830      N2832   1.157       .  T
C2833      C2834   1.415       .  A
C2833      C2838   1.428       .  A
C2834      C2835   1.419       .  A
C2834      H2839   1.083       .  S
C2835      C2836   1.425       .  A
C2835      C2842   1.443       .  S
C2836      C2837   1.414       .  A
C2837      C2838   1.425       .  A
C2837      H2840   1.081       .  S
C2838      C2841   1.442       .  S
C2841      N2843   1.158       .  T
C2842      N2844   1.158       .  T
C2845      C2846   1.411       .  A
C2845      C2850   1.426       .  A
C2846      C2847   1.418       .  A
C2846      H2851   1.081       .  S
C2847      C2848   1.427       .  A
C2847      C2854   1.442       .  S
C2848      C2849   1.415       .  A
C2849      C2850   1.422       .  A
C2849      H2852   1.081       .  S
C2850      C2853   1.443       .  S
C2853      N2855   1.157       .  T
C2854      N2856   1.157       .  T
C2857      C2859   1.557       .  S
C2857      C2861   1.543       .  S
C2857      C2860   1.546       .  S
C2857      C3253   1.582       .  S
C2858      C2862   1.544       .  S
C2858      C2864   1.548       .  S
C2858      C2863   1.530       .  S
C2858      C3241   1.582       .  S
C2859      C2867   1.382       .  A
C2860      C2871   1.382       .  A
C2861      C2875   1.379       .  A
C2862      C2865   1.376       .  A
C2863      C2869   1.366       .  A
C2864      C2872   1.377       .  A
C2865      N2866   1.358       .  A
C2865      H2878   1.081       .  S
N2866      C3205   1.445       .  S
C2867      H2868   1.082       .  S
C2869      H2879   1.083       .  S
N2870      C2871   1.355       .  A
C2871      H2877   1.081       .  S
C2872      H2874   1.081       .  S
N2873      C2875   1.356       .  A
C2875      H2876   1.082       .  S
C2880      C2882   1.550       .  S
C2880      C2884   1.554       .  S
C2880      C2883   1.547       .  S
C2880      C3244   1.582       .  S
C2881      C2885   1.543       .  S
C2881      C2887   1.530       .  S
C2881      C2886   1.553       .  S
C2881      C3256   1.584       .  S
C2882      C2890   1.380       .  A
C2882      C2885   1.408       .  A
C2883      C2894   1.382       .  A
C2883      C2886   1.409       .  A
C2884      C2898   1.388       .  A
C2884      C2887   1.407       .  A
C2885      C2888   1.377       .  A
C2886      C2892   1.382       .  A
C2887      C2895   1.367       .  A
C2888      N2889   1.353       .  A
C2888      H2901   1.082       .  S
N2889      C2890   1.354       .  A
N2889      C3169   1.430       .  S
C2890      H2891   1.082       .  S
C2892      N2893   1.360       .  A
C2892      H2902   1.081       .  S
N2893      C2894   1.360       .  A
N2893      C3193   1.442       .  S
C2894      H2900   1.082       .  S
C2895      N2896   1.350       .  A
C2895      H2897   1.083       .  S
N2896      C2898   1.359       .  A
N2896      C3181   1.429       .  S
C2898      H2899   1.081       .  S
O2903     Zr2915   2.436       .  S
O2903      C2905   1.285       .  A
O2904     Zr2941   2.422       .  S
O2904      C2905   1.284       .  A
C2905      C3157   1.491       .  S
O2906     Zr2918   2.456       .  S
O2906      C2908   1.291       .  A
O2907     Zr2942   2.453   1_455  S
C2908      C3133   1.505       .  S
O2909     Zr2918   2.435       .  S
O2909      C2911   1.286       .  A
O2910      C2911   1.281       .  A
C2911      C3229   1.456       .  S
O2912     Zr2915   2.345       .  S
O2913     Zr2942   2.386       .  S
O2913      C2914   1.267       .  A
O2916      H2959   0.990       .  S
O2917      H2958   0.991       .  S
O2917      H2962   0.990       .  S
Zr2918     O2919   2.431       .  S
Zr2918     O2920   2.435       .  S
Zr2918     O2922   2.352       .  S
Zr2918     O2921   2.390       .  S
Zr2918     O2946   2.353       .  S
Zr2918     O2948   2.372       .  S
O2919      H2960   0.989       .  S
O2919      H2963   0.991       .  S
O2920      H2953   0.990       .  S
O2922      H2949   0.967       .  S
O2923     Zr2935   2.430       .  S
O2923      C2925   1.286       .  A
O2924      C2925   1.287       .  A
C2925      C3145   1.471       .  S
O2929     Zr2938   2.439       .  S
O2929      C2931   1.285       .  A
O2930     Zr2942   2.423       .  S
O2930      C2931   1.285       .  A
C2931      C3208   1.485       .  S
O2932     Zr2935   2.450       .  S
O2932      C2934   1.289       .  A
O2933      C2934   1.285       .  A
C2934      C3217   1.486   1_556  S
Zr2935     O2936   2.433       .  S
Zr2935     O2937   2.434       .  S
Zr2935     O2943   2.393       .  S
Zr2935     O2944   2.324       .  S
Zr2935     O2947   2.393       .  S
Zr2935     O2945   2.339       .  S
O2936      H2956   0.990       .  S
O2936      H2961   0.989   1_556  S
O2937      H2957   0.991       .  S
O2939      H2955   0.990       .  S
O2940      H2954   0.990       .  S
O2943      H2951   0.966       .  S
O2947      H2952   0.965       .  S
O2965     Zr2977   2.480   1_565  S
O2965      C2967   1.292       .  A
O2966     Zr3003   2.392       .  S
O2966      C2967   1.277       .  A
C2967      C3121   1.502       .  S
O2968     Zr2980   2.455       .  S
O2968      C2970   1.289       .  A
O2969     Zr3004   2.398   1_455  S
C2970      C3100   1.462       .  S
O2971     Zr2980   2.436       .  S
O2971      C2973   1.287       .  A
O2972      C2973   1.293       .  A
C2973      C3196   1.495       .  S
O2974     Zr2977   2.415       .  S
O2975     Zr3004   2.386   1_455  S
O2975      C2976   1.267       .  A
O2978      H3021   0.990       .  S
O2979      H3020   0.990       .  S
O2979      H3024   0.990       .  S
Zr2980     O2981   2.436       .  S
Zr2980     O2982   2.438       .  S
Zr2980     O2984   2.342       .  S
Zr2980     O2983   2.396       .  S
Zr2980     O3008   2.359       .  S
Zr2980     O3010   2.382       .  S
O2981      H3022   0.990       .  S
O2981      H3025   0.990       .  S
O2982      H3015   0.990       .  S
O2984      H3011   0.964       .  S
O2985     Zr2997   2.457       .  S
O2985      C2987   1.290       .  A
O2986      C2987   1.287   1_545  A
C2987      C3112   1.500       .  S
O2988     Zr3000   2.428       .  S
O2989     Zr3003   2.397       .  S
O2991     Zr3000   2.448       .  S
O2991      C2993   1.287       .  A
O2992     Zr3004   2.415       .  S
O2992      C2993   1.283       .  A
C2993      C3172   1.480       .  S
O2994     Zr2997   2.460       .  S
O2994      C2996   1.291       .  A
O2995      C2996   1.281       .  A
C2996      C3184   1.479       .  S
Zr2997     O2998   2.436       .  S
Zr2997     O2999   2.435       .  S
Zr2997     O3005   2.402       .  S
Zr2997     O3006   2.329       .  S
Zr2997     O3009   2.391       .  S
Zr2997     O3007   2.328       .  S
O2998      H3018   0.990       .  S
O2998      H3023   0.990       .  S
O2999      H3019   0.990       .  S
O3001      H3017   0.990       .  S
O3002      H3016   0.990       .  S
O3005      H3013   0.964       .  S
O3008      H3012   0.974       .  S
O3009      H3014   0.965       .  S
C3027      C3029   1.547       .  S
C3027      C3031   1.542       .  S
C3027      C3030   1.567       .  S
C3027      C3076   1.587       .  S
C3028      C3032   1.540       .  S
C3028      C3034   1.530       .  S
C3028      C3033   1.553       .  S
C3028      C3085   1.590       .  S
C3029      C3037   1.381       .  A
C3029      C3032   1.413       .  A
C3030      C3041   1.392       .  A
C3030      C3033   1.418       .  A
C3031      C3045   1.383       .  A
C3031      C3034   1.401       .  A
C3032      C3035   1.377       .  A
C3033      C3039   1.377       .  A
C3034      C3042   1.368       .  A
C3035      N3036   1.356       .  A
C3035      H3048   1.082       .  S
N3036      C3037   1.359       .  A
N3036      C3160   1.449       .  S
C3037      H3038   1.080       .  S
C3039      N3040   1.355       .  A
C3039      H3049   1.081       .  S
N3040      C3041   1.362       .  A
N3040      C3136   1.443       .  S
C3041      H3047   1.082       .  S
C3042      N3043   1.352       .  A
C3042      H3044   1.083       .  S
N3043      C3045   1.355       .  A
N3043      C3148   1.428       .  S
C3045      H3046   1.082       .  S
C3050      C3052   1.546       .  S
C3050      C3054   1.559       .  S
C3050      C3053   1.555       .  S
C3050      C3088   1.585       .  S
C3051      C3055   1.539       .  S
C3051      C3057   1.550       .  S
C3051      C3056   1.537       .  S
C3051      C3073   1.588       .  S
C3052      C3060   1.382       .  A
C3052      C3055   1.397       .  A
C3053      C3064   1.391       .  A
C3053      C3056   1.406       .  A
C3054      C3068   1.385       .  A
C3054      C3057   1.421       .  A
C3055      C3058   1.374       .  A
C3056      C3062   1.364       .  A
C3057      C3065   1.383       .  A
C3058      N3059   1.364       .  A
C3058      H3071   1.082       .  S
N3059      C3060   1.363       .  A
N3059      C3124   1.457       .  S
C3060      H3061   1.078       .  S
C3062      N3063   1.350       .  A
C3062      H3072   1.082       .  S
N3063      C3064   1.361       .  A
N3063      C3097   1.437       .  S
C3064      H3070   1.080       .  S
C3065      N3066   1.355       .  A
C3065      H3067   1.081       .  S
N3066      C3068   1.358       .  A
N3066      C3109   1.440       .  S
C3068      H3069   1.082       .  S
C3073      C3074   1.411       .  A
C3073      C3078   1.429       .  A
C3074      C3075   1.425       .  A
C3074      H3079   1.079       .  S
C3075      C3076   1.430       .  A
C3075      C3082   1.442       .  S
C3076      C3077   1.413       .  A
C3077      C3078   1.423       .  A
C3077      H3080   1.081       .  S
C3078      C3081   1.445       .  S
C3081      N3083   1.157       .  T
C3082      N3084   1.157       .  T
C3085      C3086   1.419       .  A
C3085      C3090   1.427       .  A
C3086      C3087   1.423   1_556  A
C3086      H3091   1.082       .  S
C3089      C3090   1.426       .  A
C3089      H3092   1.078   1_556  S
C3090      C3093   1.442       .  S
C3093      N3095   1.157       .  T
C3094      N3096   1.157       .  T
C3097      C3098   1.407       .  A
C3097      C3102   1.409       .  A
C3098      C3099   1.393       .  A
C3098      H3103   1.083       .  S
C3099      C3100   1.403       .  A
C3099      C3106   1.444       .  S
C3100      C3101   1.404       .  A
C3101      C3102   1.402       .  A
C3101      H3104   1.085       .  S
C3102      C3105   1.443       .  S
C3105      N3107   1.157       .  T
C3109      C3110   1.400       .  A
C3109      C3114   1.405       .  A
C3110      C3111   1.406       .  A
C3110      H3115   1.085       .  S
C3111      C3112   1.423       .  A
C3112      C3113   1.410       .  A
C3113      C3114   1.403       .  A
C3113      H3116   1.084       .  S
C3114      C3117   1.441       .  S
C3117      N3119   1.157       .  T
C3118      N3120   1.157       .  T
C3121      C3122   1.405       .  A
C3121      C3126   1.423       .  A
C3122      C3123   1.406       .  A
C3122      H3127   1.085       .  S
C3123      C3124   1.423       .  A
C3123      C3130   1.441       .  S
C3124      C3125   1.405       .  A
C3125      C3126   1.399       .  A
C3125      H3128   1.083       .  S
C3126      C3129   1.446       .  S
C3129      N3131   1.158       .  T
C3130      N3132   1.157       .  T
C3133      C3134   1.413       .  A
C3133      C3138   1.421       .  A
C3134      C3135   1.411       .  A
C3134      H3139   1.084       .  S
C3135      C3136   1.408       .  A
C3135      C3142   1.442       .  S
C3136      C3137   1.399       .  A
C3137      C3138   1.403       .  A
C3137      H3140   1.084       .  S
C3138      C3141   1.443       .  S
C3141      N3143   1.157       .  T
C3142      N3144   1.157       .  T
C3145      C3146   1.402       .  A
C3145      C3150   1.414       .  A
C3146      C3147   1.396       .  A
C3146      H3151   1.085       .  S
C3147      C3148   1.407       .  A
C3147      C3154   1.443       .  S
C3148      C3149   1.398       .  A
C3149      C3150   1.400       .  A
C3149      H3152   1.084       .  S
C3150      C3153   1.445       .  S
C3153      N3155   1.157       .  T
C3154      N3156   1.157       .  T
C3157      C3158   1.409       .  A
C3157      C3162   1.414       .  A
C3158      C3159   1.404       .  A
C3158      H3163   1.085       .  S
C3159      C3160   1.415       .  A
C3159      C3166   1.443       .  S
C3160      C3161   1.406       .  A
C3161      C3162   1.397       .  A
C3161      H3164   1.084       .  S
C3162      C3165   1.442       .  S
C3165      N3167   1.156       .  T
C3166      N3168   1.158       .  T
C3169      C3170   1.401       .  A
C3169      C3174   1.404       .  A
C3170      C3171   1.403       .  A
C3170      H3175   1.084       .  S
C3171      C3172   1.414       .  A
C3171      C3178   1.444       .  S
C3172      C3173   1.406       .  A
C3173      C3174   1.398       .  A
C3173      H3176   1.085       .  S
C3174      C3177   1.442       .  S
C3177      N3179   1.157       .  T
C3181      C3182   1.399       .  A
C3181      C3186   1.404       .  A
C3182      C3183   1.399       .  A
C3182      H3187   1.084       .  S
C3183      C3184   1.414       .  A
C3183      C3190   1.444       .  S
C3184      C3185   1.408       .  A
C3185      C3186   1.399       .  A
C3185      H3188   1.085       .  S
C3186      C3189   1.442       .  S
C3189      N3191   1.157       .  T
C3190      N3192   1.157       .  T
C3193      C3194   1.399       .  A
C3193      C3198   1.410       .  A
C3194      C3195   1.402       .  A
C3194      H3199   1.084       .  S
C3195      C3196   1.419       .  A
C3195      C3202   1.443       .  S
C3196      C3197   1.409       .  A
C3197      C3198   1.408       .  A
C3197      H3200   1.084       .  S
C3198      C3201   1.442       .  S
C3201      N3203   1.157       .  T
C3202      N3204   1.157       .  T
C3205      C3206   1.404       .  A
C3205      C3210   1.416       .  A
C3206      C3207   1.399       .  A
C3206      H3211   1.084   1_556  S
C3207      C3208   1.416       .  A
C3207      C3214   1.445   1_556  S
C3208      C3209   1.405       .  A
C3209      C3210   1.402       .  A
C3209      H3212   1.085       .  S
C3210      C3213   1.443       .  S
C3213      N3215   1.157       .  T
C3217      C3218   1.408   1_554  A
C3218      C3219   1.400   1_556  A
C3218      H3223   1.085       .  S
C3219      C3220   1.405       .  A
C3219      C3226   1.442   1_554  S
C3221      C3222   1.404       .  A
C3221      H3224   1.084       .  S
C3222      C3225   1.444       .  S
C3225      N3227   1.157       .  T
C3226      N3228   1.157       .  T
C3229      C3230   1.398       .  A
C3230      C3231   1.392       .  A
C3230      H3235   1.084       .  S
C3231      C3232   1.404       .  A
C3231      C3238   1.442       .  S
C3233      C3234   1.399       .  A
C3233      H3236   1.084       .  S
C3234      C3237   1.444       .  S
C3237      N3239   1.157       .  T
C3238      N3240   1.157       .  T
C3241      C3242   1.415       .  A
C3241      C3246   1.427       .  A
C3242      C3243   1.420       .  A
C3242      H3247   1.083       .  S
C3243      C3244   1.425       .  A
C3243      C3250   1.443       .  S
C3244      C3245   1.414       .  A
C3245      C3246   1.424       .  A
C3245      H3248   1.080       .  S
C3246      C3249   1.442       .  S
C3249      N3251   1.158       .  T
C3250      N3252   1.157       .  T
C3253      C3254   1.413       .  A
C3253      C3258   1.425       .  A
C3254      C3255   1.421       .  A
C3254      H3259   1.082       .  S
C3255      C3256   1.429       .  A
C3255      C3262   1.442       .  S
C3256      C3257   1.415       .  A
C3257      C3258   1.423       .  A
C3257      H3260   1.081       .  S
C3258      C3261   1.442       .  S
C3261      N3263   1.157       .  T
C3262      N3264   1.157       .  T
