geometry optimzed in LAMMPS
_audit_creation_date              2020-11-30 
_audit_creation_method            'lammps2cif' 
_symmetry_space_group_name_H-M    'P1' 
_symmetry_Int_Tables_number       1 
_symmetry_cell_setting            triclinic 
loop_ 
_symmetry_equiv_pos_as_xyz 
  x,y,z 
_cell_length_a                    29.81889367 
_cell_length_b                    29.96428611441107 
_cell_length_c                    23.569404493128932 
_cell_angle_alpha                 90.06900294318297 
_cell_angle_beta                  90.01617298733017 
_cell_angle_gamma                 120.39308065916047 
loop_ 
_atom_site_label 
_atom_site_type_symbol 
_atom_site_fract_x 
_atom_site_fract_y 
_atom_site_fract_z 
_atom_site_charge 
O1          O  0.11272662  0.34785317  0.28212687    -0.77800
C2          C  0.15953993  0.23209716  0.26137582     0.83200
O3          O  0.27647598  0.45163098  0.19883060    -0.78900
O4          O  0.24168427  0.29659419  0.09963300    -0.80400
O5          O  0.05385138  0.25928589  0.10112905    -0.80200
O6          O  0.06236416  0.33992542  0.20825516    -0.78800
Zn7        Zn  0.17226986  0.34043063  0.25078944     1.55700
O8          O  0.10802075  0.22898845  0.09087401    -0.80200
Cd9        Cd  0.10143756  0.33016767  0.14165628     1.59700
Cd10       Cd  0.22830138  0.40137395  0.13571189     1.59600
O11         O  0.11586521  0.38917976  0.08636479    -0.80200
O12         O  0.16848766  0.33696765  0.16848688    -1.90700
Cd13       Cd  0.17147510  0.27503574  0.14147224     1.59900
O14         O  0.20228612  0.43836738  0.08060766    -0.80200
O15         O  0.16150062  0.22649269  0.20813899    -0.78800
C16         C  0.27716082  0.44374472  0.25187412     0.83700
C17         C  0.07287068  0.34699897  0.26096444     0.83300
O18         O  0.16474358  0.27360665  0.28299342    -0.77800
C19         C  0.06404924  0.22541559  0.08232763     0.84200
O20         O  0.24129216  0.40300809  0.27588871    -0.77900
C21         C  0.15660425  0.42840010  0.06700561     0.84300
C22         C  0.27788415  0.34096765  0.08317532     0.84600
O23         O  0.27613888  0.38199632  0.09256940    -0.80300
C24         C  0.00217041  0.05022434  0.33264822     0.03000
C25         C  0.45381320  0.50268096  0.33311858     0.03000
C26         C  0.45336867  0.45514586  0.33252480     0.03000
C27         C  0.50090916  0.45494984  0.33257393     0.03000
C28         C  0.04915661  0.00256715  0.33295569     0.03000
C29         C  0.04994647  0.05033190  0.33249859     0.03000
C30         C  0.35315932  0.04153133  0.03241434     0.03800
C31         C  0.31824446  0.01716712  0.32135253    -0.12300
C32         C  0.32171281  0.48105087  0.28662503     0.01300
C33         C  0.36629688  0.47680983  0.28996734    -0.10900
C34         C  0.40359597  0.00305312  0.33281148     0.03800
C35         C  0.39397733  0.03170597  0.04035960    -0.10300
H36         H  0.28859075  0.02661546  0.31527100     0.09400
H37         H  0.37147121  0.45248437  0.25979490     0.06900
H38         H  0.42078756  0.04999349  0.07532968     0.06800
C39         C  0.35192721  0.31536909  0.30385733     0.03800
C40         C  0.31933319  0.30542988  0.35064950    -0.12300
C41         C  0.32233764  0.34636314  0.04935038     0.00300
C42         C  0.36690770  0.39527939  0.04388152    -0.10900
C43         C  0.40316161  0.40506253  0.33414327     0.03800
C44         C  0.39276224  0.36592847  0.29457430    -0.10300
H45         H  0.29361458  0.26616125  0.36273657     0.09400
H46         H  0.37329898  0.42578638  0.07323893     0.06900
H47         H  0.41877626  0.37407293  0.25896471     0.06800
C48         C  0.03737703  0.35353506  0.29873392     0.03800
C49         C  0.01318115  0.31887841  0.34319014    -0.12300
C50         C  0.47758988  0.32276328  0.04524686     0.01300
C51         C  0.47467903  0.36792890  0.04301619    -0.10900
C52         C  0.00059178  0.40471068  0.33306052     0.03800
C53         C  0.02807020  0.39445146  0.29133779    -0.10300
H54         H  0.52287475  0.28956473  0.34939236     0.09400
H55         H  0.45135546  0.37378242  0.07404850     0.06900
H56         H  0.04628291  0.42104688  0.25634020     0.06800
C57         C  0.46458304  0.15094123  0.30182118     0.03800
C58         C  0.47383094  0.11006422  0.29356723    -0.12300
C59         C  0.50227860  0.10005280  0.33390332     0.01300
C60         C  0.02884820  0.13654532  0.04355902    -0.10900
C61         C  0.02545660  0.18137053  0.04757764     0.03800
C62         C  0.48828613  0.18470519  0.34754488    -0.10300
H63         H  0.45571682  0.08375847  0.25820848     0.09400
H64         H  0.05262370  0.13033778  0.07363669     0.06900
H65         H  0.47647173  0.21208378  0.35731611     0.06800
C66         C  0.14994637  0.46362073  0.02868130     0.03800
C67         C  0.18333989  0.48709812  0.31590472    -0.12300
C68         C  0.17954833  0.02401432  0.28279588     0.01300
C69         C  0.13489867  0.02789714  0.28783932    -0.10900
C70         C  0.09887998  0.50194115  0.33124734     0.03800
C71         C  0.10908676  0.47321649  0.03763741    -0.10300
H72         H  0.21108261  0.47566769  0.30589482     0.09400
H73         H  0.12849817  0.05171127  0.25816819     0.06900
H74         H  0.08303892  0.45542277  0.07325040     0.06800
C75         C  0.15207581  0.18964525  0.29901537     0.03800
C76         C  0.18780525  0.19985644  0.34219419    -0.12300
C77         C  0.18439566  0.16023985  0.04338645     0.01300
C78         C  0.13890892  0.11155238  0.04099806    -0.10900
C79         C  0.10067375  0.10081684  0.33260396     0.03800
C80         C  0.11000537  0.13929014  0.29217554    -0.10300
H81         H  0.21764677  0.23900123  0.34768033     0.09400
H82         H  0.13361635  0.08204121  0.07116749     0.06900
H83         H  0.08244162  0.13109768  0.25814499     0.06800
O84         O  0.34338800  0.11447208  0.05012439    -0.77800
C85         C  0.22876942  0.16818886  0.07914761     0.83200
O86         O  0.44988834  0.27800681  0.13320232    -0.78900
O87         O  0.29995762  0.23734631  0.25171737    -0.80400
O88         O  0.25823864  0.05382918  0.22971377    -0.80200
O89         O  0.34117457  0.06645058  0.12355732    -0.78800
Zn90       Zn  0.33592762  0.17383884  0.08346603     1.55700
O91         O  0.22686874  0.10676803  0.24131490    -0.80200
Cd92       Cd  0.32949960  0.10317297  0.19085350     1.59700
Cd93       Cd  0.40207289  0.22897169  0.19693251     1.59600
O94         O  0.38815743  0.11682671  0.24675388    -0.80200
O95         O  0.33550927  0.17010163  0.16586138    -1.90700
Cd96       Cd  0.27480993  0.17368397  0.19719339     1.59900
O97         O  0.44082260  0.20254506  0.24762760    -0.80200
O98         O  0.22685939  0.17351334  0.13261668    -0.78800
C99         C  0.44050080  0.27864315  0.08055449     0.83700
C100        C  0.34583842  0.07626084  0.07071927     0.83300
O101        O  0.26711177  0.16738398  0.05567766    -0.77800
C102        C  0.22366248  0.06306625  0.24861818     0.84200
O103        O  0.39881885  0.24286752  0.05746855    -0.77900
C104        C  0.42922433  0.15725413  0.26349495     0.84300
C105        C  0.34548400  0.27328499  0.26605598     0.84600
O106        O  0.38646248  0.27484034  0.24806559    -0.80300
O107        O  0.11272889  0.34785006  0.61546449    -0.77800
C108        C  0.15954122  0.23209424  0.59470901     0.83200
O109        O  0.27647168  0.45163306  0.53217172    -0.78900
O110        O  0.24167993  0.29659608  0.43296641    -0.80400
O111        O  0.05384678  0.25928682  0.43446819    -0.80200
O112        O  0.06236975  0.33993013  0.54159199    -0.78800
Zn113      Zn  0.17227105  0.34042728  0.58412629     1.55700
O114        O  0.10801426  0.22898712  0.42421425    -0.80200
Cd115      Cd  0.10143795  0.33016881  0.47499240     1.59700
Cd116      Cd  0.22829973  0.40137612  0.46905184     1.59600
O117        O  0.11586375  0.38917853  0.41969930    -0.80200
O118        O  0.16848699  0.33696752  0.50182399    -1.90700
Cd119      Cd  0.17147196  0.27503538  0.47480769     1.59900
O120        O  0.20228453  0.43836836  0.41394495    -0.80200
O121        O  0.16150113  0.22649118  0.54147189    -0.78800
C122        C  0.27716006  0.44374242  0.58521357     0.83700
C123        C  0.07287514  0.34699995  0.59430159     0.83300
O124        O  0.16474456  0.27360288  0.61632837    -0.77800
C125        C  0.06404262  0.22541445  0.41566919     0.84200
O126        O  0.24129429  0.40300277  0.60922641    -0.77900
C127        C  0.15660251  0.42839945  0.40034088     0.84300
C128        C  0.27788270  0.34097053  0.41651500     0.84600
O129        O  0.27613959  0.38199985  0.42591300    -0.80300
C130        C  0.00217007  0.05022230  0.66597961     0.03000
C131        C  0.45381534  0.50267953  0.66644995     0.03000
C132        C  0.45337018  0.45514417  0.66585599     0.03000
C133        C  0.50091044  0.45494793  0.66590391     0.03000
C134        C  0.04915591  0.00256449  0.66628733     0.03000
C135        C  0.04994610  0.05032948  0.66583093     0.03000
C136        C  0.35315309  0.04152475  0.36575194     0.03800
C137        C  0.31824153  0.01716131  0.65469032    -0.12300
C138        C  0.32171256  0.48104766  0.61996400     0.01300
C139        C  0.36629746  0.47680780  0.62330285    -0.10900
C140        C  0.40359538  0.00305004  0.66614288     0.03800
C141        C  0.39397158  0.03170064  0.37369914    -0.10300
H142        H  0.28858698  0.02660847  0.64861181     0.09400
H143        H  0.37147085  0.45248238  0.59312948     0.06900
H144        H  0.42078113  0.04998894  0.40866957     0.06800
C145        C  0.35192978  0.31536648  0.63719188     0.03800
C146        C  0.31933648  0.30542776  0.68398500    -0.12300
C147        C  0.32233651  0.34636593  0.38269145     0.00300
C148        C  0.36690632  0.39528203  0.37721973    -0.10900
C149        C  0.40316310  0.40506075  0.66747560     0.03800
C150        C  0.39276360  0.36592615  0.62790735    -0.10300
H151        H  0.29361886  0.26615925  0.69607390     0.09400
H152        H  0.37329855  0.42579040  0.40657566     0.06900
H153        H  0.41877686  0.37407055  0.59229690     0.06800
C154        C  0.03738183  0.35353603  0.63207039     0.03800
C155        C  0.01318862  0.31888132  0.67652860    -0.12300
C156        C  0.47757862  0.32275453  0.37856411     0.01300
C157        C  0.47467382  0.36792366  0.37634102    -0.10900
C158        C  0.00059252  0.40470870  0.66639240     0.03800
C159        C  0.02807105  0.39444924  0.62467041    -0.10300
H160        H  0.52288752  0.28957214  0.68273420     0.09400
H161        H  0.45135247  0.37377738  0.40737625     0.06900
H162        H  0.04628222  0.42104337  0.58967126     0.06800
C163        C  0.46458733  0.15094305  0.63514539     0.03800
C164        C  0.47383134  0.11006289  0.62689559    -0.12300
C165        C  0.50227841  0.10005152  0.66723284     0.01300
C166        C  0.02884326  0.13654426  0.37690100    -0.10900
C167        C  0.02544792  0.18136711  0.38092303     0.03800
C168        C  0.48829195  0.18470890  0.68086737    -0.10300
H169        H  0.45571558  0.08375560  0.59153852     0.09400
H170        H  0.05262152  0.13033834  0.40697629     0.06900
H171        H  0.47647967  0.21208944  0.69063456     0.06800
C172        C  0.14994368  0.46361872  0.36201547     0.03800
C173        C  0.18333960  0.48709332  0.64923304    -0.12300
C174        C  0.17954620  0.02401150  0.61612402     0.01300
C175        C  0.13489673  0.02789417  0.62116880    -0.10900
C176        C  0.09888095  0.50193812  0.66457572     0.03800
C177        C  0.10908332  0.47321347  0.37097053    -0.10300
H178        H  0.21108188  0.47566237  0.63922283     0.09400
H179        H  0.12849576  0.05170855  0.59149851     0.06900
H180        H  0.08303490  0.45541931  0.40658306     0.06800
C181        C  0.15207803  0.18964173  0.63234674     0.03800
C182        C  0.18780925  0.19985159  0.67552294    -0.12300
C183        C  0.18439331  0.16024274  0.37671987     0.01300
C184        C  0.13890567  0.11155624  0.37433490    -0.10900
C185        C  0.10067400  0.10081403  0.66593651     0.03800
C186        C  0.11000594  0.13928746  0.62550820    -0.10300
H187        H  0.21765243  0.23899622  0.68100810     0.09400
H188        H  0.13361316  0.08204623  0.40450591     0.06900
H189        H  0.08244152  0.13109596  0.59147874     0.06800
O190        O  0.34337709  0.11446294  0.38345647    -0.77800
C191        C  0.22876699  0.16819024  0.41247955     0.83200
O192        O  0.44988004  0.27800314  0.46652167    -0.78900
O193        O  0.29995879  0.23734374  0.58505205    -0.80400
O194        O  0.25823891  0.05382897  0.56304678    -0.80200
O195        O  0.34117343  0.06644959  0.45689312    -0.78800
Zn196      Zn  0.33591998  0.17383177  0.41679458     1.55700
O197        O  0.22686547  0.10676538  0.57464240    -0.80200
Cd198      Cd  0.32949868  0.10317309  0.52418661     1.59700
Cd199      Cd  0.40207157  0.22897034  0.53025658     1.59600
O200        O  0.38815710  0.11682761  0.58008595    -0.80200
O201        O  0.33550637  0.17009965  0.49919029    -1.90700
Cd202      Cd  0.27480870  0.17368335  0.53052429     1.59900
O203        O  0.44082719  0.20254520  0.58094618    -0.80200
O204        O  0.22686010  0.17351856  0.46594841    -0.78800
C205        C  0.44049111  0.27863561  0.41387366     0.83700
C206        C  0.34583195  0.07625516  0.40405422     0.83300
O207        O  0.26710545  0.16737897  0.38900868    -0.77800
C208        C  0.22366067  0.06306438  0.58194755     0.84200
O209        O  0.39880949  0.24285764  0.39078983    -0.77900
C210        C  0.42922755  0.15725519  0.59681943     0.84300
C211        C  0.34548567  0.27328262  0.59938891     0.84600
O212        O  0.38646357  0.27483897  0.58139420    -0.80300
O213        O  0.11273211  0.34785359  0.94880216    -0.77800
C214        C  0.15954295  0.23209705  0.92804495     0.83200
O215        O  0.27647214  0.45163701  0.86550027    -0.78900
O216        O  0.24168150  0.29659452  0.76630076    -0.80400
O217        O  0.05384778  0.25928643  0.76780089    -0.80200
O218        O  0.06236892  0.33992977  0.87493233    -0.78800
Zn219      Zn  0.17227389  0.34043059  0.91746017     1.55700
O220        O  0.10801633  0.22898804  0.75754570    -0.80200
Cd221      Cd  0.10143684  0.33016866  0.80832911     1.59700
Cd222      Cd  0.22830047  0.40137562  0.80238267     1.59600
O223        O  0.11586365  0.38917887  0.75303504    -0.80200
O224        O  0.16848747  0.33696827  0.83515758    -1.90700
Cd225      Cd  0.17147297  0.27503573  0.80814174     1.59900
O226        O  0.20228447  0.43836401  0.74727191    -0.80200
O227        O  0.16150076  0.22649254  0.87480774    -0.78800
C228        C  0.27716232  0.44374733  0.91854217     0.83700
C229        C  0.07287651  0.34700156  0.92764171     0.83300
O230        O  0.16474850  0.27360686  0.94966369    -0.77800
C231        C  0.06404478  0.22541531  0.74899953     0.84200
O232        O  0.24129811  0.40300734  0.94255611    -0.77900
C233        C  0.15660233  0.42839677  0.73367136     0.84300
C234        C  0.27788476  0.34096888  0.74984936     0.84600
O235        O  0.27614149  0.38199821  0.75924681    -0.80300
C236        C  0.00217350  0.05022430  0.99930802     0.03000
C237        C  0.45381419  0.50268129  0.99978698     0.03000
C238        C  0.45337071  0.45514651  0.99919110     0.03000
C239        C  0.50091166  0.45495150  0.99924177     0.03000
C240        C  0.04915718  0.00256467  0.99961460     0.03000
C241        C  0.04994891  0.05033021  0.99915907     0.03000
C242        C  0.35315363  0.04152142  0.69908628     0.03800
C243        C  0.31824945  0.01717402  0.98801562    -0.12300
C244        C  0.32171493  0.48105375  0.95329186     0.01300
C245        C  0.36629780  0.47681063  0.95663588    -0.10900
C246        C  0.40359953  0.00305690  0.99947164     0.03800
C247        C  0.39397302  0.03169862  0.70703073    -0.10300
H248        H  0.28859535  0.02662237  0.98193657     0.09400
H249        H  0.37147158  0.45248449  0.92646383     0.06900
H250        H  0.42078446  0.04998839  0.74199927     0.06800
C251        C  0.35193204  0.31536947  0.97051567     0.03800
C252        C  0.31933473  0.30542862  0.01730527    -0.12300
C253        C  0.32233901  0.34636409  0.71602593     0.00300
C254        C  0.36690836  0.39528053  0.71055278    -0.10900
C255        C  0.40316454  0.40506209  0.00080638     0.03800
C256        C  0.39276811  0.36592923  0.96123654    -0.10300
H257        H  0.29361430  0.26615912  0.02938792     0.09400
H258        H  0.37330062  0.42578921  0.73990806     0.06900
H259        H  0.41878425  0.37407507  0.92562876     0.06800
C260        C  0.03738485  0.35353938  0.96541303     0.03800
C261        C  0.01319499  0.31888873  0.00987583    -0.12300
C262        C  0.47758365  0.32275542  0.71189790     0.01300
C263        C  0.47467589  0.36792267  0.70967268    -0.10900
C264        C  0.00059470  0.40471275  0.99973196     0.03800
C265        C  0.02807275  0.39445174  0.95801075    -0.10300
H266        H  0.52289599  0.28958080  0.01608735     0.09400
H267        H  0.45135332  0.37377566  0.74070709     0.06900
H268        H  0.04628242  0.42104412  0.92300986     0.06800
C269        C  0.46459535  0.15094682  0.96847218     0.03800
C270        C  0.47383884  0.11006641  0.96022263    -0.12300
C271        C  0.50228412  0.10005410  0.00056107     0.01300
C272        C  0.02884446  0.13654447  0.71023021    -0.10900
C273        C  0.02545139  0.18136897  0.71425001     0.03800
C274        C  0.48830054  0.18471291  0.01419317    -0.10300
H275        H  0.45572317  0.08375921  0.92486533     0.09400
H276        H  0.05262154  0.13033817  0.74030664     0.06900
H277        H  0.47649049  0.21209632  0.02395747     0.06800
C278        C  0.14994365  0.46361509  0.69534440     0.03800
C279        C  0.18334236  0.48710018  0.98257038    -0.12300
C280        C  0.17955134  0.02401381  0.94945917     0.01300
C281        C  0.13490024  0.02789458  0.95449974    -0.10900
C282        C  0.09888278  0.50194371  0.99791420     0.03800
C283        C  0.10908452  0.47321145  0.70429979    -0.10300
H284        H  0.21108548  0.47566982  0.97256028     0.09400
H285        H  0.12850010  0.05170852  0.92482808     0.06900
H286        H  0.08303676  0.45541886  0.73991317     0.06800
C287        C  0.15207897  0.18964432  0.96568311     0.03800
C288        C  0.18780570  0.19985485  0.00886474    -0.12300
C289        C  0.18439687  0.16023758  0.71004821     0.01300
C290        C  0.13890722  0.11155229  0.70766569    -0.10900
C291        C  0.10067745  0.10081433  0.99926651     0.03800
C292        C  0.11001058  0.13928875  0.95883920    -0.10300
H293        H  0.21764368  0.23900047  0.01435685     0.09400
H294        H  0.13361434  0.08204218  0.73783694     0.06900
H295        H  0.08244837  0.13109698  0.92480702     0.06800
O296        O  0.34338130  0.11446144  0.71678905    -0.77800
C297        C  0.22877072  0.16818506  0.74580767     0.83200
O298        O  0.44988416  0.27800384  0.79985410    -0.78900
O299        O  0.29996335  0.23734736  0.91837416    -0.80400
O300        O  0.25824343  0.05383001  0.89637987    -0.80200
O301        O  0.34117709  0.06644877  0.79022681    -0.78800
Zn302      Zn  0.33592566  0.17383128  0.75012472     1.55700
O303        O  0.22687170  0.10676759  0.90797671    -0.80200
Cd304      Cd  0.32950369  0.10317376  0.85751901     1.59700
Cd305      Cd  0.40207589  0.22897122  0.86358737     1.59600
O306        O  0.38816396  0.11683014  0.91341576    -0.80200
O307        O  0.33551163  0.17009965  0.83252046    -1.90700
Cd308      Cd  0.27481362  0.17368282  0.86385311     1.59900
O309        O  0.44083309  0.20254791  0.91427550    -0.80200
O310        O  0.22686281  0.17351144  0.79927665    -0.78800
C311        C  0.44049639  0.27863572  0.74720588     0.83700
C312        C  0.34583504  0.07625344  0.73738777     0.83300
O313        O  0.26711107  0.16737747  0.72233657    -0.77800
C314        C  0.22366616  0.06306632  0.91528212     0.84200
O315        O  0.39881600  0.24285695  0.72412080    -0.77900
C316        C  0.42923456  0.15725812  0.93014792     0.84300
C317        C  0.34548970  0.27328616  0.93271286     0.84600
O318        O  0.38646817  0.27484127  0.91472256    -0.80300
O319        O  0.11273003  0.84785272  0.28213309    -0.77800
C320        C  0.15954232  0.73209592  0.26137603     0.83200
O321        O  0.27647575  0.95163185  0.19883424    -0.78900
O322        O  0.24168359  0.79659630  0.09963133    -0.80400
O323        O  0.05384863  0.75928653  0.10113607    -0.80200
O324        O  0.06236905  0.83993023  0.20826182    -0.78800
Zn325      Zn  0.17227216  0.84042951  0.25079282     1.55700
O326        O  0.10801714  0.72898826  0.09087879    -0.80200
Cd327      Cd  0.10143834  0.83016894  0.14166109     1.59700
Cd328      Cd  0.22830155  0.90137483  0.13571541     1.59600
O329        O  0.11586479  0.88917901  0.08636714    -0.80200
O330        O  0.16848843  0.83696780  0.16849018    -1.90700
Cd331      Cd  0.17147491  0.77503604  0.14147347     1.59900
O332        O  0.20228564  0.93836729  0.08061077    -0.80200
O333        O  0.16150315  0.72649250  0.20813900    -0.78800
C334        C  0.27716224  0.94374406  0.25187713     0.83700
C335        C  0.07287531  0.84700148  0.26097132     0.83300
O336        O  0.16474561  0.77360486  0.28299473    -0.77800
C337        C  0.06404521  0.72541532  0.08233461     0.84200
O338        O  0.24129510  0.90300618  0.27589132    -0.77900
C339        C  0.15660376  0.92839917  0.06700757     0.84300
C340        C  0.27788380  0.84097002  0.08317441     0.84600
O341        O  0.27613940  0.88199881  0.09257091    -0.80300
C342        C  0.00216994  0.55022383  0.33264454     0.03000
C343        C  0.45381394  0.00268102  0.33312274     0.03000
C344        C  0.45337023  0.95514633  0.33252800     0.03000
C345        C  0.50091115  0.95495117  0.33257703     0.03000
C346        C  0.04915492  0.50256539  0.33295279     0.03000
C347        C  0.04994575  0.55033063  0.33249647     0.03000
C348        C  0.35315538  0.54152862  0.03241555     0.03800
C349        C  0.31824398  0.51716797  0.32135001    -0.12300
C350        C  0.32171388  0.98105036  0.28662791     0.01300
C351        C  0.36629796  0.97680940  0.28997098    -0.10900
C352        C  0.40359560  0.50305372  0.33280726     0.03800
C353        C  0.39397261  0.53170250  0.04036343    -0.10300
H354        H  0.28859060  0.52661641  0.31526947     0.09400
H355        H  0.37147283  0.95248433  0.25979860     0.06900
H356        H  0.42078196  0.54999007  0.07533417     0.06800
C357        C  0.35193071  0.81536888  0.30385938     0.03800
C358        C  0.31933549  0.80542959  0.35065056    -0.12300
C359        C  0.32233632  0.84636546  0.04934730     0.00300
C360        C  0.36690687  0.89528150  0.04387751    -0.10900
C361        C  0.40316367  0.90506244  0.33414563     0.03800
C362        C  0.39276559  0.86592848  0.29457695    -0.10300
H363        H  0.29361680  0.76616087  0.36273757     0.09400
H364        H  0.37329912  0.92578884  0.07323483     0.06900
H365        H  0.41878020  0.87407330  0.25896777     0.06800
C366        C  0.03738248  0.85353833  0.29874137     0.03800
C367        C  0.01318777  0.81888293  0.34319907    -0.12300
C368        C  0.47758423  0.82275833  0.04523627     0.01300
C369        C  0.47467532  0.86792508  0.04300722    -0.10900
C370        C  0.00059464  0.90471249  0.33306485     0.03800
C371        C  0.02807368  0.89445321  0.29134307    -0.10300
H372        H  0.52288376  0.78957150  0.34940435     0.09400
H373        H  0.45135204  0.87377873  0.07403992     0.06900
H374        H  0.04628572  0.92104790  0.25634461     0.06800
C375        C  0.46458569  0.65094261  0.30181286     0.03800
C376        C  0.47383189  0.61006421  0.29356111    -0.12300
C377        C  0.50227891  0.60005285  0.33389828     0.01300
C378        C  0.02884389  0.63654473  0.04356639    -0.10900
C379        C  0.02545072  0.68136897  0.04758686     0.03800
C380        C  0.48828944  0.68470781  0.34753535    -0.10300
H381        H  0.45571717  0.58375771  0.25820319     0.09400
H382        H  0.05262083  0.63033794  0.07364274     0.06900
H383        H  0.47647707  0.71208834  0.35730291     0.06800
C384        C  0.14994588  0.96361856  0.02868133     0.03800
C385        C  0.18334076  0.98709879  0.31590731    -0.12300
C386        C  0.17954679  0.52401310  0.28279291     0.01300
C387        C  0.13489662  0.52789500  0.28783582    -0.10900
C388        C  0.09888210  0.00194361  0.33125094     0.03800
C389        C  0.10908491  0.97321274  0.03763432    -0.10300
H390        H  0.21108289  0.97566733  0.30589667     0.09400
H391        H  0.12849598  0.55170913  0.25816477     0.06900
H392        H  0.08303565  0.95541847  0.07324623     0.06800
C393        C  0.15207791  0.68964335  0.29901462     0.03800
C394        C  0.18780705  0.69985360  0.34219339    -0.12300
C395        C  0.18439260  0.66024234  0.04339172     0.01300
C396        C  0.13890605  0.61155490  0.04100350    -0.10900
C397        C  0.10067385  0.60081514  0.33260309     0.03800
C398        C  0.11000668  0.63928874  0.29217469    -0.10300
H399        H  0.21764933  0.73899830  0.34767939     0.09400
H400        H  0.13361367  0.58204375  0.07117291     0.06900
H401        H  0.08244329  0.63109702  0.25814394     0.06800
O402        O  0.34338099  0.61446796  0.05012266    -0.77800
C403        C  0.22876692  0.66819061  0.07915096     0.83200
O404        O  0.44988453  0.77800505  0.13319324    -0.78900
O405        O  0.29996011  0.73734588  0.25172034    -0.80400
O406        O  0.25823772  0.55382916  0.22971175    -0.80200
O407        O  0.34117319  0.56645082  0.12355729    -0.78800
Zn408      Zn  0.33592283  0.67383614  0.08346357     1.55700
O409        O  0.22686782  0.60676779  0.24131417    -0.80200
Cd410      Cd  0.32949849  0.60317353  0.19085202     1.59700
Cd411      Cd  0.40207273  0.72897202  0.19692656     1.59600
O412        O  0.38815710  0.61682750  0.24675086    -0.80200
O413        O  0.33550783  0.67010161  0.16585899    -1.90700
Cd414      Cd  0.27481009  0.67368461  0.19719449     1.59900
O415        O  0.44082534  0.70254546  0.24761716    -0.80200
O416        O  0.22685946  0.67351718  0.13262000    -0.78800
C417        C  0.44049578  0.77863936  0.08054544     0.83700
C418        C  0.34583406  0.57625861  0.07071887     0.83300
O419        O  0.26710690  0.66738251  0.05567934    -0.77800
C420        C  0.22366134  0.56306579  0.24861625     0.84200
O421        O  0.39881326  0.74286302  0.05746126    -0.77900
C422        C  0.42922626  0.65725497  0.26348728     0.84300
C423        C  0.34548692  0.77328509  0.26605681     0.84600
O424        O  0.38646489  0.77484130  0.24806280    -0.80300
O425        O  0.11272719  0.84784645  0.61546447    -0.77800
C426        C  0.15954177  0.73209129  0.59470305     0.83200
O427        O  0.27646906  0.95163043  0.53217299    -0.78900
O428        O  0.24167920  0.79659491  0.43296318    -0.80400
O429        O  0.05384520  0.75928476  0.43446660    -0.80200
O430        O  0.06236784  0.83992887  0.54159316    -0.78800
Zn431      Zn  0.17226902  0.84042347  0.58412467     1.55700
O432        O  0.10801424  0.72898729  0.42420816    -0.80200
Cd433      Cd  0.10143563  0.83016683  0.47499238     1.59700
Cd434      Cd  0.22829838  0.90137386  0.46905226     1.59600
O435        O  0.11586286  0.88917804  0.41970021    -0.80200
O436        O  0.16848494  0.83696487  0.50182254    -1.90700
Cd437      Cd  0.17147092  0.77503375  0.47480343     1.59900
O438        O  0.20228383  0.93836697  0.41394657    -0.80200
O439        O  0.16150119  0.72648879  0.54146580    -0.78800
C440        C  0.27715750  0.94373874  0.58521451     0.83700
C441        C  0.07287395  0.84699825  0.59430274     0.83300
O442        O  0.16474390  0.77359903  0.61632357    -0.77800
C443        C  0.06404225  0.72541410  0.41566432     0.84200
O444        O  0.24129206  0.90299828  0.60922639    -0.77900
C445        C  0.15660216  0.92839904  0.40034262     0.84300
C446        C  0.27788286  0.84096977  0.41651415     0.84600
O447        O  0.27613989  0.88199894  0.42591373    -0.80300
C448        C  0.00217256  0.55022221  0.66597621     0.03000
C449        C  0.45381345  0.00267849  0.66645230     0.03000
C450        C  0.45336985  0.95514369  0.66585784     0.03000
C451        C  0.50091076  0.95494878  0.66590708     0.03000
C452        C  0.04915632  0.50256294  0.66628202     0.03000
C453        C  0.04994786  0.55032830  0.66582613     0.03000
C454        C  0.35315367  0.54152590  0.36574870     0.03800
C455        C  0.31824434  0.51716428  0.65469008    -0.12300
C456        C  0.32170964  0.98104386  0.61996557     0.01300
C457        C  0.36629459  0.97680404  0.62330531    -0.10900
C458        C  0.40359818  0.50305279  0.66614069     0.03800
C459        C  0.39397204  0.53170169  0.37369495    -0.10300
H460        H  0.28858893  0.52661058  0.64861317     0.09400
H461        H  0.37146825  0.95247851  0.59313246     0.06900
H462        H  0.42078203  0.54998993  0.40866512     0.06800
C463        C  0.35193142  0.81536438  0.63719474     0.03800
C464        C  0.31933906  0.80542518  0.68398868    -0.12300
C465        C  0.32233750  0.84636546  0.38269172     0.00300
C466        C  0.36690739  0.89528159  0.37722112    -0.10900
C467        C  0.40316366  0.90505929  0.66747765     0.03800
C468        C  0.39276478  0.86592449  0.62790971    -0.10300
H469        H  0.29362154  0.76615661  0.69607809     0.09400
H470        H  0.37329884  0.92578950  0.40657702     0.06900
H471        H  0.41877774  0.87406920  0.59229907     0.06800
C472        C  0.03738247  0.85353629  0.63207315     0.03800
C473        C  0.01319031  0.81888257  0.67653250    -0.12300
C474        C  0.47758330  0.82275791  0.37857067     0.01300
C475        C  0.47467674  0.86792591  0.37634566    -0.10900
C476        C  0.00059422  0.90471010  0.66639612     0.03800
C477        C  0.02807241  0.89445024  0.62467379    -0.10300
H478        H  0.52288941  0.78957359  0.68273910     0.09400
H479        H  0.45135416  0.87377912  0.40737983     0.06900
H480        H  0.04628314  0.92104404  0.58967435     0.06800
C481        C  0.46459157  0.65094306  0.63514248     0.03800
C482        C  0.47383589  0.61006343  0.62689176    -0.12300
C483        C  0.50228239  0.60005165  0.66722901     0.01300
C484        C  0.02884280  0.63654426  0.37689573    -0.10900
C485        C  0.02544852  0.68136785  0.38091617     0.03800
C486        C  0.48829645  0.68470878  0.68086437    -0.10300
H487        H  0.45572020  0.58375637  0.59153447     0.09400
H488        H  0.05261967  0.63033785  0.40697224     0.06900
H489        H  0.47648485  0.71208989  0.69063128     0.06800
C490        C  0.14994471  0.96361977  0.36201827     0.03800
C491        C  0.18333880  0.98709499  0.64923351    -0.12300
C492        C  0.17954736  0.52400888  0.61612150     0.01300
C493        C  0.13489723  0.52789092  0.62116359    -0.10900
C494        C  0.09888113  0.00194058  0.66458115     0.03800
C495        C  0.10908542  0.97321599  0.37097418    -0.10300
H496        H  0.21107981  0.97566319  0.63922039     0.09400
H497        H  0.12849684  0.55170497  0.59149222     0.06900
H498        H  0.08303710  0.95542207  0.40658693     0.06800
C499        C  0.15208035  0.68963914  0.63233966     0.03800
C500        C  0.18781266  0.69984932  0.67551474    -0.12300
C501        C  0.18439419  0.66023982  0.37671949     0.01300
C502        C  0.13890567  0.61155358  0.37433426    -0.10900
C503        C  0.10067632  0.60081215  0.66593048     0.03800
C504        C  0.11000801  0.63928504  0.62550189    -0.10300
H505        H  0.21765663  0.73899414  0.68099887     0.09400
H506        H  0.13361241  0.58204321  0.40450505     0.06900
H507        H  0.08244294  0.63109347  0.59147304     0.06800
O508        O  0.34338026  0.61446533  0.38345571    -0.77800
C509        C  0.22876790  0.66818761  0.41247993     0.83200
O510        O  0.44988333  0.77800423  0.46652662    -0.78900
O511        O  0.29996017  0.73734197  0.58505399    -0.80400
O512        O  0.25824183  0.55382758  0.56304674    -0.80200
O513        O  0.34117400  0.56644904  0.45689064    -0.78800
Zn514      Zn  0.33592327  0.67383365  0.41679579     1.55700
O515        O  0.22686749  0.60676328  0.57464197    -0.80200
Cd516      Cd  0.32950146  0.60317226  0.52418598     1.59700
Cd517      Cd  0.40207342  0.72896964  0.53025899     1.59600
O518        O  0.38816166  0.61682685  0.58008269    -0.80200
O519        O  0.33550865  0.67009909  0.49919139    -1.90700
Cd520      Cd  0.27481031  0.67368179  0.53052515     1.59900
O521        O  0.44082908  0.70254482  0.58094736    -0.80200
O522        O  0.22686017  0.67351449  0.46594900    -0.78800
C523        C  0.44049503  0.77863823  0.41387878     0.83700
C524        C  0.34583327  0.57625609  0.40405204     0.83300
O525        O  0.26710806  0.66737946  0.38900916    -0.77800
C526        C  0.22366289  0.56306237  0.58194675     0.84200
O527        O  0.39881350  0.74286097  0.39079386    -0.77900
C528        C  0.42923108  0.65725472  0.59681774     0.84300
C529        C  0.34548707  0.77328069  0.59939145     0.84600
O530        O  0.38646500  0.77483711  0.58139709    -0.80300
O531        O  0.11273310  0.84785587  0.94879764    -0.77800
C532        C  0.15954227  0.73209873  0.92804761     0.83200
O533        O  0.27647530  0.95163743  0.86549736    -0.78900
O534        O  0.24168284  0.79659151  0.76630232    -0.80400
O535        O  0.05385099  0.75928507  0.76779788    -0.80200
O536        O  0.06236809  0.83992526  0.87492711    -0.78800
Zn537      Zn  0.17227570  0.84043307  0.91745845     1.55700
O538        O  0.10801895  0.72898576  0.75754574    -0.80200
Cd539      Cd  0.10143889  0.83016696  0.80832588     1.59700
Cd540      Cd  0.22830263  0.90137492  0.80238034     1.59600
O541        O  0.11586514  0.88917835  0.75303397    -0.80200
O542        O  0.16848968  0.83696801  0.83515585    -1.90700
Cd543      Cd  0.17147451  0.77503430  0.80814239     1.59900
O544        O  0.20228590  0.93836340  0.74726962    -0.80200
O545        O  0.16150038  0.72649266  0.87481073    -0.78800
C546        C  0.27716430  0.94375005  0.91854005     0.83700
C547        C  0.07287605  0.84700011  0.92763611     0.83300
O548        O  0.16474928  0.77360979  0.94966456    -0.77800
C549        C  0.06404783  0.72541350  0.74899812     0.84200
O550        O  0.24129918  0.90301118  0.94255483    -0.77900
C551        C  0.15660353  0.92839666  0.73367047     0.84300
C552        C  0.27788621  0.84096585  0.74985095     0.84600
O553        O  0.27614267  0.88199527  0.75924677    -0.80300
C554        C  0.00217082  0.55022454  0.99931355     0.03000
C555        C  0.45381641  0.00268225  0.99978198     0.03000
C556        C  0.45337091  0.95514650  0.99918642     0.03000
C557        C  0.50091111  0.95494975  0.99923613     0.03000
C558        C  0.04915704  0.50256716  0.99962001     0.03000
C559        C  0.04994704  0.55033191  0.99916425     0.03000
C560        C  0.35315712  0.54152446  0.69908549     0.03800
C561        C  0.31824691  0.51717181  0.98801576    -0.12300
C562        C  0.32171731  0.98105696  0.95328955     0.01300
C563        C  0.36630063  0.97681443  0.95663154    -0.10900
C564        C  0.40359617  0.50305381  0.99947621     0.03800
C565        C  0.39397662  0.53170170  0.70702891    -0.10300
H566        H  0.28859355  0.52662072  0.98193436     0.09400
H567        H  0.37147398  0.95248866  0.92645874     0.06900
H568        H  0.42078840  0.54999126  0.74199731     0.06800
C569        C  0.35192808  0.81537085  0.97051112     0.03800
C570        C  0.31933211  0.80543059  0.01730173    -0.12300
C571        C  0.32234103  0.84636126  0.71602920     0.00300
C572        C  0.36690943  0.89527824  0.71055539    -0.10900
C573        C  0.40316339  0.90506314  0.00080206     0.03800
C574        C  0.39276507  0.86593014  0.96123182    -0.10300
H575        H  0.29361235  0.76616111  0.02938522     0.09400
H576        H  0.37330104  0.92578692  0.73991041     0.06900
H577        H  0.41878088  0.87407525  0.92562381     0.06800
C578        C  0.03738285  0.85353682  0.96540568     0.03800
C579        C  0.01318973  0.81888357  0.00986555    -0.12300
C580        C  0.47758730  0.82275812  0.71190405     0.01300
C581        C  0.47467872  0.86792490  0.70967770    -0.10900
C582        C  0.00059263  0.90471014  0.99972451     0.03800
C583        C  0.02807206  0.89445007  0.95800414    -0.10300
H584        H  0.52288780  0.78957313  0.01607435     0.09400
H585        H  0.45135622  0.87377805  0.74071204     0.06900
H586        H  0.04628358  0.92104358  0.92300467     0.06800
C587        C  0.46458711  0.65094435  0.96848351     0.03800
C588        C  0.47383265  0.61006542  0.96023168    -0.12300
C589        C  0.50227937  0.60005344  0.00056859     0.01300
C590        C  0.02884812  0.63654349  0.71022756    -0.10900
C591        C  0.02545493  0.68136770  0.71424826     0.03800
C592        C  0.48829158  0.68470934  0.01420589    -0.10300
H593        H  0.45571785  0.58375920  0.92487359     0.09400
H594        H  0.05262500  0.63033650  0.74030377     0.06900
H595        H  0.47647985  0.71209103  0.02397351     0.06800
C596        C  0.14994408  0.96361615  0.69534569     0.03800
C597        C  0.18334390  0.98709906  0.98257207    -0.12300
C598        C  0.17954936  0.52401534  0.94945871     0.01300
C599        C  0.13489932  0.52789771  0.95450249    -0.10900
C600        C  0.09888218  0.00193998  0.99791007     0.03800
C601        C  0.10908527  0.97321278  0.70430351    -0.10300
H602        H  0.21108811  0.97566965  0.97256436     0.09400
H603        H  0.12849857  0.55171194  0.92483171     0.06900
H604        H  0.08303794  0.95541926  0.73991711     0.06800
C605        C  0.15207649  0.68964645  0.96568764     0.03800
C606        C  0.18780286  0.69985710  0.00886955    -0.12300
C607        C  0.18440000  0.66023563  0.71004069     0.01300
C608        C  0.13890993  0.61155050  0.70765922    -0.10900
C609        C  0.10067475  0.60081662  0.99927191     0.03800
C610        C  0.11000752  0.63929094  0.95884448    -0.10300
H611        H  0.21764108  0.73900261  0.01436114     0.09400
H612        H  0.13361689  0.58204089  0.73783098     0.06900
H613        H  0.08244530  0.63109897  0.92481247     0.06800
O614        O  0.34338768  0.61446583  0.71678941    -0.77800
C615        C  0.22877289  0.66818373  0.74580207     0.83200
O616        O  0.44988668  0.77800431  0.79985957    -0.78900
O617        O  0.29995982  0.73734801  0.91836997    -0.80400
O618        O  0.25823997  0.55382967  0.89637737    -0.80200
O619        O  0.34117655  0.56644893  0.79022617    -0.78800
Zn620      Zn  0.33592906  0.67383364  0.75012522     1.55700
O621        O  0.22686955  0.60676830  0.90797464    -0.80200
Cd622      Cd  0.32950160  0.60317334  0.85751869     1.59700
Cd623      Cd  0.40207451  0.72897114  0.86359108     1.59600
O624        O  0.38815955  0.61682920  0.91341969    -0.80200
O625        O  0.33551127  0.67010009  0.83252086    -1.90700
Cd626      Cd  0.27481188  0.67368259  0.86385017     1.59900
O627        O  0.44082706  0.70254717  0.91428633    -0.80200
O628        O  0.22686247  0.67350889  0.79927091    -0.78800
C629        C  0.44049950  0.77863807  0.74721138     0.83700
C630        C  0.34583845  0.57625606  0.73738757     0.83300
O631        O  0.26711504  0.66737826  0.72233286    -0.77800
C632        C  0.22366337  0.56306677  0.91528008     0.84200
O633        O  0.39881913  0.74286043  0.72412521    -0.77900
C634        C  0.42922801  0.65725680  0.93015715     0.84300
C635        C  0.34548588  0.77328690  0.93270965     0.84600
O636        O  0.38646473  0.77484155  0.91472188    -0.80300
O637        O  0.61272606  0.34785272  0.28212731    -0.77800
C638        C  0.65954002  0.23209696  0.26137619     0.83200
O639        O  0.77647557  0.45163104  0.19883176    -0.78900
O640        O  0.74168436  0.29659420  0.09963348    -0.80400
O641        O  0.55385160  0.25928600  0.10112939    -0.80200
O642        O  0.56236396  0.33992533  0.20825540    -0.78800
Zn643      Zn  0.67226951  0.34043031  0.25079004     1.55700
O644        O  0.60802105  0.22898868  0.09087426    -0.80200
Cd645      Cd  0.60143766  0.33016768  0.14165678     1.59700
Cd646      Cd  0.72830145  0.40137397  0.13571276     1.59600
O647        O  0.61586530  0.38917982  0.08636545    -0.80200
O648        O  0.66848769  0.33696760  0.16848752    -1.90700
Cd649      Cd  0.67147525  0.27503576  0.14147274     1.59900
O650        O  0.70228621  0.43836739  0.08060841    -0.80200
O651        O  0.66150094  0.22649264  0.20813936    -0.78800
C652        C  0.77716039  0.44374457  0.25187524     0.83700
C653        C  0.57287025  0.34699868  0.26096472     0.83300
O654        O  0.66474339  0.27360631  0.28299386    -0.77800
C655        C  0.56404955  0.22541581  0.08232779     0.84200
O656        O  0.74129180  0.40300775  0.27588965    -0.77900
C657        C  0.65660438  0.42840022  0.06700637     0.84300
C658        C  0.77788428  0.34096771  0.08317601     0.84600
O659        O  0.77613904  0.38199638  0.09257033    -0.80300
C660        C  0.50217033  0.05022423  0.33264859     0.03000
C661        C  0.95381319  0.50268094  0.33311855     0.03000
C662        C  0.95336877  0.45514589  0.33252460     0.03000
C663        C  0.00090930  0.45494995  0.33257366     0.03000
C664        C  0.54915645  0.00256697  0.33295566     0.03000
C665        C  0.54994640  0.05033174  0.33249878     0.03000
C666        C  0.85315894  0.04153099  0.03241429     0.03800
C667        C  0.81824424  0.01716669  0.32135328    -0.12300
C668        C  0.82171241  0.48105064  0.28662618     0.01300
C669        C  0.86629660  0.47680975  0.28996802    -0.10900
C670        C  0.90359618  0.00305323  0.33281122     0.03800
C671        C  0.89397690  0.03170556  0.04035959    -0.10300
H672        H  0.78859038  0.02661472  0.31527226     0.09400
H673        H  0.87147085  0.45248434  0.25979547     0.06900
H674        H  0.92078716  0.04999310  0.07532962     0.06800
C675        C  0.85192765  0.31536901  0.30385729     0.03800
C676        C  0.81933363  0.30542978  0.35064951    -0.12300
C677        C  0.82233771  0.34636329  0.04935088     0.00300
C678        C  0.86690767  0.39527955  0.04388163    -0.10900
C679        C  0.90316185  0.40506251  0.33414303     0.03800
C680        C  0.89276260  0.36592839  0.29457420    -0.10300
H681        H  0.79361520  0.26616122  0.36273672     0.09400
H682        H  0.87329907  0.42578668  0.07323896     0.06900
H683        H  0.91877665  0.37407284  0.25896456     0.06800
C684        C  0.53737653  0.35353475  0.29873400     0.03800
C685        C  0.51318051  0.31887800  0.34319014    -0.12300
C686        C  0.97758973  0.32276321  0.04524605     0.01300
C687        C  0.97467902  0.36792887  0.04301547    -0.10900
C688        C  0.50059151  0.40471051  0.33306060     0.03800
C689        C  0.52806984  0.39445123  0.29133792    -0.10300
H690        H  0.02287546  0.28956511  0.34939246     0.09400
H691        H  0.95135548  0.37378246  0.07404793     0.06900
H692        H  0.54628273  0.42104674  0.25634033     0.06800
C693        C  0.96458311  0.15094138  0.30182068     0.03800
C694        C  0.97383101  0.11006435  0.29356678    -0.12300
C695        C  0.00227863  0.10005292  0.33390294     0.01300
C696        C  0.52884860  0.13654560  0.04355907    -0.10900
C697        C  0.52545699  0.18137081  0.04757760     0.03800
C698        C  0.98828616  0.18470533  0.34754437    -0.10300
H699        H  0.95571690  0.08375860  0.25820801     0.09400
H700        H  0.55262397  0.13033805  0.07363689     0.06900
H701        H  0.97647182  0.21208413  0.35731549     0.06800
C702        C  0.64994646  0.46362091  0.02868212     0.03800
C703        C  0.68333984  0.48709795  0.31590373    -0.12300
C704        C  0.67954801  0.02401412  0.28279507     0.01300
C705        C  0.63489831  0.02789685  0.28783873    -0.10900
C706        C  0.59887998  0.50194101  0.33124712     0.03800
C707        C  0.60908688  0.47321666  0.03763806    -0.10300
H708        H  0.71108239  0.47566740  0.30589344     0.09400
H709        H  0.62849768  0.05171099  0.25816775     0.06900
H710        H  0.58303891  0.45542293  0.07325116     0.06800
C711        C  0.65207591  0.18964501  0.29901562     0.03800
C712        C  0.68780563  0.19985606  0.34219407    -0.12300
C713        C  0.68439598  0.16024020  0.04338630     0.01300
C714        C  0.63890929  0.11155264  0.04099811    -0.10900
C715        C  0.60067377  0.10081662  0.33260415     0.03800
C716        C  0.61000540  0.13928998  0.29217584    -0.10300
H717        H  0.71764734  0.23900080  0.34768003     0.09400
H718        H  0.63361682  0.08204162  0.07116765     0.06900
H719        H  0.58244158  0.13109759  0.25814530     0.06800
O720        O  0.84338763  0.11447179  0.05012419    -0.77800
C721        C  0.72876971  0.16818927  0.07914747     0.83200
O722        O  0.94988821  0.27800688  0.13320146    -0.78900
O723        O  0.79995791  0.23734629  0.25171726    -0.80400
O724        O  0.75823865  0.05382933  0.22971345    -0.80200
O725        O  0.84117462  0.06645059  0.12355723    -0.78800
Zn726      Zn  0.83592764  0.17383882  0.08346564     1.55700
O727        O  0.72686840  0.10676792  0.24131408    -0.80200
Cd728      Cd  0.82949954  0.10317307  0.19085318     1.59700
Cd729      Cd  0.90207305  0.22897185  0.19693176     1.59600
O730        O  0.88815723  0.11682676  0.24675379    -0.80200
O731        O  0.83550932  0.17010174  0.16586093    -1.90700
Cd732      Cd  0.77481003  0.17368407  0.19719305     1.59900
O733        O  0.94082276  0.20254508  0.24762672    -0.80200
O734        O  0.72685979  0.17351406  0.13261649    -0.78800
C735        C  0.94050065  0.27864315  0.08055364     0.83700
C736        C  0.84583818  0.07626062  0.07071916     0.83300
O737        O  0.76711186  0.16738399  0.05567760    -0.77800
C738        C  0.72366225  0.06306620  0.24861747     0.84200
O739        O  0.89881869  0.24286749  0.05746774    -0.77900
C740        C  0.92922434  0.15725420  0.26349445     0.84300
C741        C  0.84548431  0.27328493  0.26605581     0.84600
O742        O  0.88646276  0.27484036  0.24806515    -0.80300
O743        O  0.61272955  0.34785051  0.61546382    -0.77800
C744        C  0.65954148  0.23209452  0.59470895     0.83200
O745        O  0.77647234  0.45163327  0.53217110    -0.78900
O746        O  0.74168038  0.29659609  0.43296642    -0.80400
O747        O  0.55384713  0.25928694  0.43446820    -0.80200
O748        O  0.56237041  0.33993063  0.54159135    -0.78800
Zn749      Zn  0.67227167  0.34042768  0.58412583     1.55700
O750        O  0.60801450  0.22898710  0.42421425    -0.80200
Cd751      Cd  0.60143856  0.33016911  0.47499193     1.59700
Cd752      Cd  0.72830027  0.40137642  0.46905128     1.59600
O753        O  0.61586421  0.38917851  0.41969847    -0.80200
O754        O  0.66848761  0.33696784  0.50182357    -1.90700
Cd755      Cd  0.67147237  0.27503547  0.47480759     1.59900
O756        O  0.70228498  0.43836863  0.41394426    -0.80200
O757        O  0.66150137  0.22649134  0.54147186    -0.78800
C758        C  0.77716061  0.44374277  0.58521301     0.83700
C759        C  0.57287581  0.34700044  0.59430092     0.83300
O760        O  0.66474514  0.27360335  0.61632817    -0.77800
C761        C  0.56404285  0.22541443  0.41566933     0.84200
O762        O  0.74129473  0.40300323  0.60922590    -0.77900
C763        C  0.65660290  0.42839949  0.40034006     0.84300
C764        C  0.77788311  0.34097051  0.41651488     0.84600
O765        O  0.77613998  0.38199986  0.42591265    -0.80300
C766        C  0.50216986  0.05022221  0.66597917     0.03000
C767        C  0.95381543  0.50267962  0.66645071     0.03000
C768        C  0.95337017  0.45514421  0.66585681     0.03000
C769        C  0.00091039  0.45494787  0.66590474     0.03000
C770        C  0.54915586  0.00256455  0.66628660     0.03000
C771        C  0.54994595  0.05032949  0.66583048     0.03000
C772        C  0.85315326  0.04152460  0.36575232     0.03800
C773        C  0.81824213  0.01716197  0.65468974    -0.12300
C774        C  0.82171303  0.48104810  0.61996353     0.01300
C775        C  0.86629793  0.47680819  0.62330277    -0.10900
C776        C  0.90359564  0.00305035  0.66614318     0.03800
C777        C  0.89397191  0.03170070  0.37369911    -0.10300
H778        H  0.78858752  0.02660921  0.64861088     0.09400
H779        H  0.87147152  0.45248287  0.59312949     0.06900
H780        H  0.92078160  0.04998897  0.40866944     0.06800
C781        C  0.85192975  0.31536675  0.63719154     0.03800
C782        C  0.81933618  0.30542777  0.68398449    -0.12300
C783        C  0.82233690  0.34636588  0.38269135     0.00300
C784        C  0.86690657  0.39528202  0.37721946    -0.10900
C785        C  0.90316301  0.40506083  0.66747593     0.03800
C786        C  0.89276373  0.36592642  0.62790747    -0.10300
H787        H  0.79361852  0.26615920  0.69607299     0.09400
H788        H  0.87329875  0.42579040  0.40657530     0.06900
H789        H  0.91877729  0.37407100  0.59229730     0.06800
C790        C  0.53738247  0.35353646  0.63206972     0.03800
C791        C  0.51318897  0.31888143  0.67652764    -0.12300
C792        C  0.97757914  0.32275481  0.37856412     0.01300
C793        C  0.97467425  0.36792388  0.37634096    -0.10900
C794        C  0.50059273  0.40470882  0.66639154     0.03800
C795        C  0.52807156  0.39444957  0.62466969    -0.10300
H796        H  0.02288735  0.28957203  0.68273530     0.09400
H797        H  0.95135274  0.37377756  0.40737626     0.06900
H798        H  0.54628283  0.42104376  0.58967065     0.06800
C799        C  0.96458767  0.15094324  0.63514584     0.03800
C800        C  0.97383162  0.11006304  0.62689606    -0.12300
C801        C  0.00227870  0.10005165  0.66723325     0.01300
C802        C  0.52884334  0.13654414  0.37690137    -0.10900
C803        C  0.52544797  0.18136698  0.38092341     0.03800
C804        C  0.98829245  0.18470912  0.68086772    -0.10300
H805        H  0.95571572  0.08375570  0.59153901     0.09400
H806        H  0.55262164  0.13033827  0.40697650     0.06900
H807        H  0.97648005  0.21208965  0.69063512     0.06800
C808        C  0.64994388  0.46361863  0.36201468     0.03800
C809        C  0.68333970  0.48709358  0.64923363    -0.12300
C810        C  0.67954667  0.02401194  0.61612454     0.01300
C811        C  0.63489708  0.02789448  0.62116882    -0.10900
C812        C  0.59888099  0.50193829  0.66457571     0.03800
C813        C  0.60908354  0.47321337  0.37097009    -0.10300
H814        H  0.71108226  0.47566270  0.63922362     0.09400
H815        H  0.62849630  0.05170896  0.59149838     0.06900
H816        H  0.58303531  0.45541924  0.40658274     0.06800
C817        C  0.65207789  0.18964191  0.63234684     0.03800
C818        C  0.68780884  0.19985172  0.67552335    -0.12300
C819        C  0.68439366  0.16024231  0.37671967     0.01300
C820        C  0.63890586  0.11155592  0.37433490    -0.10900
C821        C  0.60067379  0.10081408  0.66593635     0.03800
C822        C  0.61000584  0.13928761  0.62550811    -0.10300
H823        H  0.71765179  0.23899631  0.68100883     0.09400
H824        H  0.63361336  0.08204586  0.40450589     0.06900
H825        H  0.58244154  0.13109610  0.59147850     0.06800
O826        O  0.84337754  0.11446293  0.38345693    -0.77800
C827        C  0.72876738  0.16818982  0.41247930     0.83200
O828        O  0.94988057  0.27800341  0.46652173    -0.78900
O829        O  0.79995908  0.23734401  0.58505167    -0.80400
O830        O  0.75823915  0.05382905  0.56304695    -0.80200
O831        O  0.84117341  0.06644926  0.45689353    -0.78800
Zn832      Zn  0.83592055  0.17383198  0.41679461     1.55700
O833        O  0.72686620  0.10676583  0.57464294    -0.80200
Cd834      Cd  0.82949903  0.10317312  0.52418695     1.59700
Cd835      Cd  0.90207213  0.22897064  0.53025684     1.59600
O836        O  0.88815744  0.11682780  0.58008643    -0.80200
O837        O  0.83550695  0.17009982  0.49919042    -1.90700
Cd838      Cd  0.77480926  0.17368352  0.53052427     1.59900
O839        O  0.94082769  0.20254542  0.58094653    -0.80200
O840        O  0.72686042  0.17351788  0.46594819    -0.78800
C841        C  0.94049168  0.27863584  0.41387367     0.83700
C842        C  0.84583215  0.07625499  0.40405466     0.83300
O843        O  0.76710606  0.16737902  0.38900832    -0.77800
C844        C  0.72366118  0.06306471  0.58194803     0.84200
O845        O  0.89881010  0.24285781  0.39078983    -0.77900
C846        C  0.92922793  0.15725540  0.59681987     0.84300
C847        C  0.84548588  0.27328296  0.59938859     0.84600
O848        O  0.88646388  0.27483934  0.58139417    -0.80300
O849        O  0.61273208  0.34785350  0.94880232    -0.77800
C850        C  0.65954271  0.23209688  0.92804467     0.83200
O851        O  0.77647170  0.45163675  0.86550004    -0.78900
O852        O  0.74168108  0.29659448  0.76630054    -0.80400
O853        O  0.55384702  0.25928605  0.76780086    -0.80200
O854        O  0.56236843  0.33992934  0.87493281    -0.78800
Zn855      Zn  0.67227354  0.34043030  0.91746009     1.55700
O856        O  0.60801575  0.22898784  0.75754555    -0.80200
Cd857      Cd  0.60143612  0.33016831  0.80832918     1.59700
Cd858      Cd  0.72829985  0.40137524  0.80238264     1.59600
O859        O  0.61586308  0.38917885  0.75303535    -0.80200
O860        O  0.66848680  0.33696784  0.83515751    -1.90700
Cd861      Cd  0.67147248  0.27503545  0.80814146     1.59900
O862        O  0.70228393  0.43836370  0.74727213    -0.80200
O863        O  0.66150038  0.22649233  0.87480745    -0.78800
C864        C  0.77716199  0.44374709  0.91854191     0.83700
C865        C  0.57287635  0.34700138  0.92764213     0.83300
O866        O  0.66474825  0.27360667  0.94966346    -0.77800
C867        C  0.56404413  0.22541504  0.74899941     0.84200
O868        O  0.74129781  0.40300708  0.94255585    -0.77900
C869        C  0.65660185  0.42839666  0.73367166     0.84300
C870        C  0.77788429  0.34096879  0.74984902     0.84600
O871        O  0.77614101  0.38199814  0.75924646    -0.80300
C872        C  0.50217387  0.05022449  0.99930834     0.03000
C873        C  0.95381414  0.50268128  0.99978652     0.03000
C874        C  0.95337060  0.45514649  0.99919074     0.03000
C875        C  0.00091157  0.45495148  0.99924124     0.03000
C876        C  0.54915740  0.00256471  0.99961540     0.03000
C877        C  0.54994921  0.05033031  0.99915956     0.03000
C878        C  0.85315386  0.04152192  0.69908599     0.03800
C879        C  0.81824906  0.01717367  0.98801560    -0.12300
C880        C  0.82171468  0.48105356  0.95329156     0.01300
C881        C  0.86629761  0.47681050  0.95663548    -0.10900
C882        C  0.90359909  0.00305652  0.99947156     0.03800
C883        C  0.89397315  0.03169899  0.70703086    -0.10300
H884        H  0.78859503  0.02662212  0.98193646     0.09400
H885        H  0.87147135  0.45248439  0.92646349     0.06900
H886        H  0.92078436  0.04998867  0.74199960     0.06800
C887        C  0.85193149  0.31536942  0.97051579     0.03800
C888        C  0.81933458  0.30542864  0.01730578    -0.12300
C889        C  0.82233858  0.34636400  0.71602561     0.00300
C890        C  0.86690793  0.39528042  0.71055273    -0.10900
C891        C  0.90316434  0.40506211  0.00080630     0.03800
C892        C  0.89276759  0.36592914  0.96123646    -0.10300
H893        H  0.79361435  0.26615929  0.02938873     0.09400
H894        H  0.87329998  0.42578904  0.73990812     0.06900
H895        H  0.91878357  0.37407489  0.92562853     0.06800
C896        C  0.53738495  0.35353940  0.96541373     0.03800
C897        C  0.51319526  0.31888889  0.00987674    -0.12300
C898        C  0.97758338  0.32275533  0.71189890     0.01300
C899        C  0.97467559  0.36792259  0.70967355    -0.10900
C900        C  0.50059480  0.40471277  0.99973264     0.03800
C901        C  0.52807276  0.39445170  0.95801138    -0.10300
H902        H  0.02289554  0.28958043  0.01608626     0.09400
H903        H  0.95135294  0.37377556  0.74070784     0.06900
H904        H  0.54628219  0.42104390  0.92301040     0.06800
C905        C  0.96459475  0.15094656  0.96847247     0.03800
C906        C  0.97383813  0.11006607  0.96022285    -0.12300
C907        C  0.00228363  0.10005384  0.00056108     0.01300
C908        C  0.52884411  0.13654433  0.71022982    -0.10900
C909        C  0.52545089  0.18136873  0.71424975     0.03800
C910        C  0.98830011  0.18471265  0.01419335    -0.10300
H911        H  0.95572239  0.08375892  0.92486569     0.09400
H912        H  0.55262125  0.13033806  0.74030622     0.06900
H913        H  0.97649012  0.21209614  0.02395782     0.06800
C914        C  0.64994349  0.46361514  0.69534470     0.03800
C915        C  0.68334243  0.48710014  0.98257099    -0.12300
C916        C  0.67955119  0.02401339  0.94945954     0.01300
C917        C  0.63490013  0.02789422  0.95450023    -0.10900
C918        C  0.59888281  0.50194371  0.99791472     0.03800
C919        C  0.60908430  0.47321150  0.70429986    -0.10300
H920        H  0.71108525  0.47566969  0.97256102     0.09400
H921        H  0.62849988  0.05170809  0.92482842     0.06900
H922        H  0.58303635  0.45541879  0.73991299     0.06800
C923        C  0.65207905  0.18964430  0.96568286     0.03800
C924        C  0.68780588  0.19985502  0.00886440    -0.12300
C925        C  0.68439645  0.16023757  0.71004844     0.01300
C926        C  0.63890689  0.11155226  0.70766564    -0.10900
C927        C  0.60067775  0.10081441  0.99926666     0.03800
C928        C  0.61001071  0.13928864  0.95883916    -0.10300
H929        H  0.71764387  0.23900084  0.01435635     0.09400
H930        H  0.63361397  0.08204204  0.73783678     0.06900
H931        H  0.58244844  0.13109673  0.92480710     0.06800
O932        O  0.84338108  0.11446166  0.71678906    -0.77800
C933        C  0.72877021  0.16818498  0.74580802     0.83200
O934        O  0.94988371  0.27800349  0.79985492    -0.78900
O935        O  0.79996261  0.23734706  0.91837456    -0.80400
O936        O  0.75824307  0.05382948  0.89637994    -0.80200
O937        O  0.84117689  0.06644878  0.79022658    -0.78800
Zn938      Zn  0.83592514  0.17383125  0.75012515     1.55700
O939        O  0.72687141  0.10676711  0.90797713    -0.80200
Cd940      Cd  0.82950325  0.10317339  0.85751902     1.59700
Cd941      Cd  0.90207513  0.22897082  0.86358785     1.59600
O942        O  0.88816352  0.11682982  0.91341580    -0.80200
O943        O  0.83551092  0.17009928  0.83252083    -1.90700
Cd944      Cd  0.77481290  0.17368242  0.86385353     1.59900
O945        O  0.94083235  0.20254762  0.91427600    -0.80200
O946        O  0.72686208  0.17351108  0.79927703    -0.78800
C947        C  0.94049597  0.27863563  0.74720675     0.83700
C948        C  0.84583494  0.07625366  0.73738760     0.83300
O949        O  0.76711064  0.16737752  0.72233700    -0.77800
C950        C  0.72366590  0.06306583  0.91528242     0.84200
O951        O  0.89881549  0.24285706  0.72412160    -0.77900
C952        C  0.92923394  0.15725780  0.93014823     0.84300
C953        C  0.84548898  0.27328590  0.93271314     0.84600
O954        O  0.88646741  0.27484092  0.91472289    -0.80300
O955        O  0.61272981  0.84785237  0.28213361    -0.77800
C956        C  0.65954262  0.73209562  0.26137672     0.83200
O957        O  0.77647531  0.95163136  0.19883501    -0.78900
O958        O  0.74168354  0.79659604  0.09963138    -0.80400
O959        O  0.55384870  0.75928643  0.10113667    -0.80200
O960        O  0.56236896  0.83993000  0.20826225    -0.78800
Zn961      Zn  0.67227190  0.84042889  0.25079360     1.55700
O962        O  0.60801708  0.72898795  0.09087963    -0.80200
Cd963      Cd  0.60143838  0.83016876  0.14166176     1.59700
Cd964      Cd  0.72830142  0.90137440  0.13571603     1.59600
O965        O  0.61586483  0.88917874  0.08636765    -0.80200
O966        O  0.66848837  0.83696736  0.16849092    -1.90700
Cd967      Cd  0.67147514  0.77503581  0.14147402     1.59900
O968        O  0.70228565  0.93836702  0.08061138    -0.80200
O969        O  0.66150380  0.72649243  0.20813969    -0.78800
C970        C  0.77716186  0.94374357  0.25187790     0.83700
C971        C  0.57287520  0.84700131  0.26097172     0.83300
O972        O  0.66474549  0.77360435  0.28299554    -0.77800
C973        C  0.56404523  0.72541514  0.08233529     0.84200
O974        O  0.74129480  0.90300565  0.27589212    -0.77900
C975        C  0.65660377  0.92839889  0.06700810     0.84300
C976        C  0.77788385  0.84096980  0.08317482     0.84600
O977        O  0.77613953  0.88199859  0.09257167    -0.80300
C978        C  0.50217001  0.55022382  0.33264504     0.03000
C979        C  0.95381409  0.00268113  0.33312227     0.03000
C980        C  0.95337044  0.95514643  0.33252760     0.03000
C981        C  0.00091136  0.95495131  0.33257691     0.03000
C982        C  0.54915488  0.50256524  0.33295310     0.03000
C983        C  0.54994579  0.55033051  0.33249720     0.03000
C984        C  0.85315530  0.54152858  0.03241513     0.03800
C985        C  0.81824370  0.51716774  0.32135129    -0.12300
C986        C  0.82171363  0.98104995  0.28662852     0.01300
C987        C  0.86629794  0.97680941  0.28997097    -0.10900
C988        C  0.90359559  0.50305372  0.33280767     0.03800
C989        C  0.89397256  0.53170249  0.04036296    -0.10300
H990        H  0.78859015  0.52661605  0.31527113     0.09400
H991        H  0.87147274  0.95248434  0.25979841     0.06900
H992        H  0.92078192  0.54999006  0.07533367     0.06800
C993        C  0.85193102  0.81536901  0.30385882     0.03800
C994        C  0.81933579  0.80542964  0.35065003    -0.12300
C995        C  0.82233636  0.84636532  0.04934765     0.00300
C996        C  0.86690684  0.89528131  0.04387763    -0.10900
C997        C  0.90316396  0.90506256  0.33414517     0.03800
C998        C  0.89276597  0.86592855  0.29457654    -0.10300
H999        H  0.79361723  0.76616102  0.36273690     0.09400
H1000       H  0.87329923  0.92578872  0.07323502     0.06900
H1001       H  0.91878070  0.87407339  0.25896742     0.06800
C1002       C  0.53738236  0.85353828  0.29874166     0.03800
C1003       C  0.51318748  0.81888280  0.34319919    -0.12300
C1004       C  0.97758433  0.82275838  0.04523546     0.01300
C1005       C  0.97467527  0.86792501  0.04300642    -0.10900
C1006       C  0.50059435  0.90471234  0.33306493     0.03800
C1007       C  0.52807354  0.89445312  0.29134322    -0.10300
H1008       H  0.02288406  0.78957156  0.34940417     0.09400
H1009       H  0.95135195  0.87377857  0.07403917     0.06900
H1010       H  0.54628563  0.92104778  0.25634483     0.06800
C1011       C  0.96458566  0.65094262  0.30181194     0.03800
C1012       C  0.97383180  0.61006412  0.29356034    -0.12300
C1013       C  0.00227872  0.60005277  0.33389763     0.01300
C1014       C  0.52884387  0.63654465  0.04356686    -0.10900
C1015       C  0.52545070  0.68136893  0.04758739     0.03800
C1016       C  0.98828935  0.68470778  0.34753445    -0.10300
H1017       H  0.95571711  0.58375755  0.25820244     0.09400
H1018       H  0.55262068  0.63033782  0.07364314     0.06900
H1019       H  0.97647697  0.71208847  0.35730189     0.06800
C1020       C  0.64994592  0.96361830  0.02868182     0.03800
C1021       C  0.68334058  0.98709858  0.31590640    -0.12300
C1022       C  0.67954673  0.52401315  0.28279233     0.01300
C1023       C  0.63489654  0.52789501  0.28783552    -0.10900
C1024       C  0.59888194  0.00194337  0.33125056     0.03800
C1025       C  0.60908503  0.97321262  0.03763499    -0.10300
H1026       H  0.71108257  0.97566714  0.30589552     0.09400
H1027       H  0.62849587  0.55170925  0.25816465     0.06900
H1028       H  0.58303593  0.95541852  0.07324690     0.06800
C1029       C  0.65207820  0.68964302  0.29901524     0.03800
C1030       C  0.68780730  0.69985327  0.34219404    -0.12300
C1031       C  0.68439277  0.66024243  0.04339113     0.01300
C1032       C  0.63890622  0.61155500  0.04100325    -0.10900
C1033       C  0.60067397  0.60081493  0.33260387     0.03800
C1034       C  0.61000695  0.63928846  0.29217533    -0.10300
H1035       H  0.71764945  0.73899799  0.34768023     0.09400
H1036       H  0.63361403  0.58204397  0.07117272     0.06900
H1037       H  0.58244360  0.63109675  0.25814447     0.06800
O1038       O  0.84338106  0.61446798  0.05012213    -0.77800
C1039       C  0.72876710  0.66819082  0.07915032     0.83200
O1040       O  0.94988462  0.77800505  0.13319235    -0.78900
O1041       O  0.79996025  0.73734603  0.25171978    -0.80400
O1042       O  0.75823772  0.55382936  0.22971141    -0.80200
O1043       O  0.84117292  0.56645073  0.12355683    -0.78800
Zn1044     Zn  0.83592293  0.67383617  0.08346281     1.55700
O1045       O  0.72686758  0.60676787  0.24131335    -0.80200
Cd1046     Cd  0.82949832  0.60317356  0.19085151     1.59700
Cd1047     Cd  0.90207262  0.72897203  0.19692555     1.59600
O1048       O  0.88815697  0.61682737  0.24675013    -0.80200
O1049       O  0.83550774  0.67010162  0.16585817    -1.90700
Cd1050     Cd  0.77481010  0.67368484  0.19719375     1.59900
O1051       O  0.94082509  0.70254533  0.24761622    -0.80200
O1052       O  0.72685969  0.67351764  0.13261932    -0.78800
C1053       C  0.94049591  0.77863933  0.08054456     0.83700
C1054       C  0.84583398  0.57625858  0.07071842     0.83300
O1055       O  0.76710700  0.66738252  0.05567876    -0.77800
C1056       C  0.72366124  0.56306593  0.24861568     0.84200
O1057       O  0.89881337  0.74286302  0.05746039    -0.77900
C1058       C  0.92922612  0.65725486  0.26348639     0.84300
C1059       C  0.84548708  0.77328517  0.26605621     0.84600
O1060       O  0.88646501  0.77484133  0.24806208    -0.80300
O1061       O  0.61272804  0.84784714  0.61546416    -0.77800
C1062       C  0.65954213  0.73209170  0.59470280     0.83200
O1063       O  0.77646989  0.95163111  0.53217232    -0.78900
O1064       O  0.74167988  0.79659520  0.43296310    -0.80400
O1065       O  0.55384568  0.75928505  0.43446694    -0.80200
O1066       O  0.56236864  0.83992951  0.54159292    -0.78800
Zn1067     Zn  0.67226986  0.84042413  0.58412432     1.55700
O1068       O  0.60801484  0.72898779  0.42420806    -0.80200
Cd1069     Cd  0.60143632  0.83016723  0.47499231     1.59700
Cd1070     Cd  0.72829905  0.90137431  0.46905173     1.59600
O1071       O  0.61586328  0.88917804  0.41969977    -0.80200
O1072       O  0.66848574  0.83696540  0.50182222    -1.90700
Cd1073     Cd  0.67147164  0.77503433  0.47480311     1.59900
O1074       O  0.70228421  0.93836730  0.41394611    -0.80200
O1075       O  0.66150153  0.72648927  0.54146553    -0.78800
C1076       C  0.77715835  0.94373949  0.58521387     0.83700
C1077       C  0.57287475  0.84699887  0.59430248     0.83300
O1078       O  0.66474455  0.77359954  0.61632341    -0.77800
C1079       C  0.56404270  0.72541441  0.41566461     0.84200
O1080       O  0.74129291  0.90299907  0.60922578    -0.77900
C1081       C  0.65660246  0.92839909  0.40034206     0.84300
C1082       C  0.77788336  0.84096995  0.41651372     0.84600
O1083       O  0.77614033  0.88199918  0.42591299    -0.80300
C1084       C  0.50217241  0.55022219  0.66597538     0.03000
C1085       C  0.95381363  0.00267866  0.66645293     0.03000
C1086       C  0.95336989  0.95514379  0.66585867     0.03000
C1087       C  0.00091076  0.95494877  0.66590793     0.03000
C1088       C  0.54915630  0.50256305  0.66628150     0.03000
C1089       C  0.54994776  0.55032837  0.66582542     0.03000
C1090       C  0.85315382  0.54152595  0.36574959     0.03800
C1091       C  0.81824464  0.51716455  0.65468967    -0.12300
C1092       C  0.82171038  0.98104464  0.61996499     0.01300
C1093       C  0.86629521  0.97680462  0.62330527    -0.10900
C1094       C  0.90359833  0.50305297  0.66614098     0.03800
C1095       C  0.89397228  0.53170181  0.37369546    -0.10300
H1096       H  0.78858914  0.52661089  0.64861249     0.09400
H1097       H  0.87146904  0.95247909  0.59313252     0.06900
H1098       H  0.92078250  0.54999015  0.40866544     0.06800
C1099       C  0.85193155  0.81536460  0.63719531     0.03800
C1100       C  0.81933892  0.80542529  0.68398913    -0.12300
C1101       C  0.82233793  0.84636558  0.38269129     0.00300
C1102       C  0.86690768  0.89528164  0.37722059    -0.10900
C1103       C  0.90316365  0.90505945  0.66747838     0.03800
C1104       C  0.89276484  0.86592467  0.62791045    -0.10300
H1105       H  0.79362154  0.76615689  0.69607842     0.09400
H1106       H  0.87329912  0.92578967  0.40657654     0.06900
H1107       H  0.91877798  0.87406948  0.59229982     0.06800
C1108       C  0.53738316  0.85353676  0.63207290     0.03800
C1109       C  0.51319124  0.81888318  0.67653245    -0.12300
C1110       C  0.97758383  0.82275814  0.37857085     0.01300
C1111       C  0.97467718  0.86792614  0.37634576    -0.10900
C1112       C  0.50059433  0.90471017  0.66639542     0.03800
C1113       C  0.52807272  0.89445042  0.62467322    -0.10300
H1114       H  0.02288804  0.78957262  0.68273877     0.09400
H1115       H  0.95135470  0.87377938  0.40737988     0.06900
H1116       H  0.54628335  0.92104417  0.58967375     0.06800
C1117       C  0.96459174  0.65094316  0.63514381     0.03800
C1118       C  0.97383623  0.61006368  0.62689270    -0.12300
C1119       C  0.00228264  0.60005171  0.66722994     0.01300
C1120       C  0.52884313  0.63654441  0.37689628    -0.10900
C1121       C  0.52544881  0.68136794  0.38091684     0.03800
C1122       C  0.98829629  0.68470848  0.68086608    -0.10300
H1123       H  0.95572069  0.58375686  0.59153522     0.09400
H1124       H  0.55262024  0.63033811  0.40697271     0.06900
H1125       H  0.97648430  0.71208916  0.69063361     0.06800
C1126       C  0.64994471  0.96361960  0.36201758     0.03800
C1127       C  0.68333910  0.98709543  0.64923431    -0.12300
C1128       C  0.67954766  0.52400917  0.61612202     0.01300
C1129       C  0.63489745  0.52789118  0.62116379    -0.10900
C1130       C  0.59888116  0.00194075  0.66458080     0.03800
C1131       C  0.60908546  0.97321583  0.37097375    -0.10300
H1132       H  0.71108034  0.97566373  0.63922164     0.09400
H1133       H  0.62849716  0.55170516  0.59149239     0.06900
H1134       H  0.58303737  0.95542204  0.40658670     0.06800
C1135       C  0.65208042  0.68963933  0.63233932     0.03800
C1136       C  0.68781264  0.69984940  0.67551453    -0.12300
C1137       C  0.68439453  0.66023951  0.37672005     0.01300
C1138       C  0.63890589  0.61155330  0.37433495    -0.10900
C1139       C  0.60067614  0.60081229  0.66593002     0.03800
C1140       C  0.61000803  0.63928530  0.62550148    -0.10300
H1141       H  0.71765652  0.73899402  0.68099867     0.09400
H1142       H  0.63361261  0.58204289  0.40450573     0.06900
H1143       H  0.58244299  0.63109383  0.59147250     0.06800
O1144       O  0.84338084  0.61446561  0.38345673    -0.77800
C1145       C  0.72876834  0.66818756  0.41248055     0.83200
O1146       O  0.94988392  0.77800460  0.46652708    -0.78900
O1147       O  0.79996055  0.73734220  0.58505447    -0.80400
O1148       O  0.75824209  0.55382781  0.56304724    -0.80200
O1149       O  0.84117458  0.56644923  0.45689159    -0.78800
Zn1150     Zn  0.83592390  0.67383400  0.41679664     1.55700
O1151       O  0.72686801  0.60676368  0.57464290    -0.80200
Cd1152     Cd  0.82950193  0.60317245  0.52418684     1.59700
Cd1153     Cd  0.90207408  0.72897005  0.53025982     1.59600
O1154       O  0.88816196  0.61682722  0.58008391    -0.80200
O1155       O  0.83550928  0.67009937  0.49919226    -1.90700
Cd1156     Cd  0.77481079  0.67368192  0.53052587     1.59900
O1157       O  0.94082963  0.70254519  0.58094854    -0.80200
O1158       O  0.72686055  0.67351441  0.46594961    -0.78800
C1159       C  0.94049561  0.77863849  0.41387919     0.83700
C1160       C  0.84583375  0.57625630  0.40405300     0.83300
O1161       O  0.76710869  0.66737974  0.38900981    -0.77800
C1162       C  0.72366326  0.56306271  0.58194744     0.84200
O1163       O  0.89881409  0.74286115  0.39079437    -0.77900
C1164       C  0.92923140  0.65725503  0.59681903     0.84300
C1165       C  0.84548737  0.77328092  0.59939206     0.84600
O1166       O  0.88646541  0.77483743  0.58139787    -0.80300
O1167       O  0.61273247  0.84785542  0.94879764    -0.77800
C1168       C  0.65954176  0.73209840  0.92804730     0.83200
O1169       O  0.77647462  0.95163726  0.86549750    -0.78900
O1170       O  0.74168244  0.79659144  0.76630247    -0.80400
O1171       O  0.55385039  0.75928488  0.76779717    -0.80200
O1172       O  0.56236713  0.83992447  0.87492729    -0.78800
Zn1173     Zn  0.67227503  0.84043265  0.91745843     1.55700
O1174       O  0.60801848  0.72898571  0.75754526    -0.80200
Cd1175     Cd  0.60143810  0.83016657  0.80832584     1.59700
Cd1176     Cd  0.72830193  0.90137458  0.80238069     1.59600
O1177       O  0.61586459  0.88917843  0.75303436    -0.80200
O1178       O  0.66848889  0.83696758  0.83515591    -1.90700
Cd1179     Cd  0.67147386  0.77503401  0.80814228     1.59900
O1180       O  0.70228537  0.93836308  0.74726998    -0.80200
O1181       O  0.66149963  0.72649226  0.87481042    -0.78800
C1182       C  0.77716378  0.94374964  0.91854009     0.83700
C1183       C  0.57287526  0.84699946  0.92763626     0.83300
O1184       O  0.66474883  0.77360944  0.94966435    -0.77800
C1185       C  0.56404742  0.72541350  0.74899725     0.84200
O1186       O  0.74129872  0.90301065  0.94255473    -0.77900
C1187       C  0.65660310  0.92839667  0.73367093     0.84300
C1188       C  0.77788584  0.84096583  0.74985129     0.84600
O1189       O  0.77614221  0.88199519  0.75924718    -0.80300
C1190       C  0.50217084  0.55022453  0.99931396     0.03000
C1191       C  0.95381606  0.00268202  0.99978167     0.03000
C1192       C  0.95337063  0.95514631  0.99918595     0.03000
C1193       C  0.00091088  0.95494965  0.99923537     0.03000
C1194       C  0.54915710  0.50256718  0.99962045     0.03000
C1195       C  0.54994703  0.55033190  0.99916459     0.03000
C1196       C  0.85315705  0.54152456  0.69908537     0.03800
C1197       C  0.81824678  0.51717173  0.98801537    -0.12300
C1198       C  0.82171681  0.98105651  0.95328960     0.01300
C1199       C  0.86630015  0.97681401  0.95663153    -0.10900
C1200       C  0.90359608  0.50305381  0.99947574     0.03800
C1201       C  0.89397654  0.53170178  0.70702911    -0.10300
H1202       H  0.78859353  0.52662071  0.98193398     0.09400
H1203       H  0.87147351  0.95248828  0.92645867     0.06900
H1204       H  0.92078810  0.54999123  0.74199767     0.06800
C1205       C  0.85192772  0.81537058  0.97051124     0.03800
C1206       C  0.81933201  0.80543033  0.01730214    -0.12300
C1207       C  0.82234085  0.84636140  0.71602966     0.00300
C1208       C  0.86690926  0.89527835  0.71055601    -0.10900
C1209       C  0.90316312  0.90506294  0.00080187     0.03800
C1210       C  0.89276453  0.86592985  0.96123161    -0.10300
H1211       H  0.79361249  0.76616106  0.02938586     0.09400
H1212       H  0.87330081  0.92578706  0.73991104     0.06900
H1213       H  0.91878011  0.87407491  0.92562333     0.06800
C1214       C  0.53738231  0.85353632  0.96540606     0.03800
C1215       C  0.51318938  0.81888340  0.00986618    -0.12300
C1216       C  0.97758663  0.82275772  0.71190424     0.01300
C1217       C  0.97467845  0.86792475  0.70967830    -0.10900
C1218       C  0.50059278  0.90471017  0.99972530     0.03800
C1219       C  0.52807191  0.89444988  0.95800479    -0.10300
H1220       H  0.02288813  0.78957361  0.01607359     0.09400
H1221       H  0.95135613  0.87377797  0.74071265     0.06900
H1222       H  0.54628344  0.92104336  0.92300522     0.06800
C1223       C  0.96458709  0.65094424  0.96848295     0.03800
C1224       C  0.97383268  0.61006537  0.96023120    -0.12300
C1225       C  0.00227941  0.60005344  0.00056818     0.01300
C1226       C  0.52884790  0.63654358  0.71022653    -0.10900
C1227       C  0.52545483  0.68136789  0.71424691     0.03800
C1228       C  0.98829164  0.68470943  0.01420524    -0.10300
H1229       H  0.95571788  0.58375909  0.92487315     0.09400
H1230       H  0.55262463  0.63033661  0.74030290     0.06900
H1231       H  0.97648012  0.71209110  0.02397258     0.06800
C1232       C  0.64994402  0.96361643  0.69534615     0.03800
C1233       C  0.68334376  0.98709868  0.98257249    -0.12300
C1234       C  0.67954923  0.52401506  0.94945899     0.01300
C1235       C  0.63489931  0.52789755  0.95450283    -0.10900
C1236       C  0.59888231  0.00193992  0.99791074     0.03800
C1237       C  0.60908509  0.97321301  0.70430350    -0.10300
H1238       H  0.71108799  0.97566917  0.97256466     0.09400
H1239       H  0.62849853  0.55171169  0.92483203     0.06900
H1240       H  0.58303759  0.95541954  0.73991684     0.06800
C1241       C  0.65207624  0.68964623  0.96568724     0.03800
C1242       C  0.68780292  0.69985704  0.00886882    -0.12300
C1243       C  0.68439965  0.66023562  0.71004062     0.01300
C1244       C  0.63890953  0.61155061  0.70765905    -0.10900
C1245       C  0.60067469  0.60081659  0.99927192     0.03800
C1246       C  0.61000720  0.63929074  0.95884440    -0.10300
H1247       H  0.71764132  0.73900254  0.01435999     0.09400
H1248       H  0.63361629  0.58204095  0.73783093     0.06900
H1249       H  0.58244481  0.63109866  0.92481255     0.06800
O1250       O  0.84338715  0.61446566  0.71678937    -0.77800
C1251       C  0.72877247  0.66818360  0.74580211     0.83200
O1252       O  0.94988592  0.77800391  0.79985962    -0.78900
O1253       O  0.79995928  0.73734761  0.91837037    -0.80400
O1254       O  0.75823986  0.55382937  0.89637740    -0.80200
O1255       O  0.84117633  0.56644885  0.79022604    -0.78800
Zn1256     Zn  0.83592841  0.67383330  0.75012526     1.55700
O1257       O  0.72686932  0.60676790  0.90797469    -0.80200
Cd1258     Cd  0.82950127  0.60317307  0.85751845     1.59700
Cd1259     Cd  0.90207401  0.72897076  0.86359107     1.59600
O1260       O  0.88815933  0.61682896  0.91341931    -0.80200
O1261       O  0.83551077  0.67009977  0.83252087    -1.90700
Cd1262     Cd  0.77481144  0.67368228  0.86385040     1.59900
O1263       O  0.94082681  0.70254693  0.91428594    -0.80200
O1264       O  0.72686211  0.67350886  0.79927096    -0.78800
C1265       C  0.94049873  0.77863770  0.74721146     0.83700
C1266       C  0.84583816  0.57625600  0.73738748     0.83300
O1267       O  0.76711449  0.66737792  0.72233293    -0.77800
C1268       C  0.72366324  0.56306642  0.91528016     0.84200
O1269       O  0.89881839  0.74286008  0.72412523    -0.77900
C1270       C  0.92922785  0.65725660  0.93015669     0.84300
C1271       C  0.84548536  0.77328650  0.93270988     0.84600
O1272       O  0.88646417  0.77484110  0.91472197    -0.80300
loop_ 
_geom_bond_atom_site_label_1 
_geom_bond_atom_site_label_2 
_geom_bond_distance 
_geom_bond_site_symmetry_2 
_ccdc_geom_bond_type 
O1           C17   1.277       .  A
O1           Zn7   2.037       .  S
C2           O18   1.278       .  A
C2           O15   1.271       .  A
C2           C75   1.473       .  S
O3           C16   1.275       .  A
O3          Cd10   2.085       .  S
O4           C22   1.278       .  A
O4          Cd13   2.099       .  S
O5           C19   1.277       .  A
O5           Cd9   2.093       .  S
O6           C17   1.272       .  A
O6           Cd9   2.062       .  S
Zn7          O18   2.046       .  S
Zn7          O20   2.048       .  S
Zn7          O12   1.943       .  S
O8           C19   1.276       .  A
O8          Cd13   2.064       .  S
Cd9          O11   2.061       .  S
Cd9          O12   2.006       .  S
Cd10         O14   2.095       .  S
Cd10         O23   2.060       .  S
Cd10         O12   2.006       .  S
O11          C21   1.274       .  A
O12         Cd13   2.005       .  S
Cd13         O15   2.059       .  S
O14          C21   1.279       .  A
C16          O20   1.279       .  A
C16          C32   1.476       .  S
C17          C48   1.470       .  S
C19          C61   1.482       .  S
C21          C66   1.478       .  S
C22          O23   1.276       .  A
C22          C41   1.484       .  S
C24         C695   1.492       .  S
C24          C29   1.423       .  A
C24         C979   1.425   1_455  A
C25         C352   1.503       .  S
C25          C26   1.418       .  A
C25         C978   1.425       .  A
C26          C43   1.491       .  S
C26          C27   1.421       .  A
C27         C688   1.501       .  S
C27         C982   1.424       .  A
C28         C388   1.493       .  S
C28          C29   1.420       .  A
C28         C981   1.424   1_545  A
C29          C79   1.504       .  S
C30         C100   1.474       .  S
C30          C35   1.402       .  A
C30         C243   1.393   1_554  A
C31         C136   1.393       .  A
C31         C350   1.401   1_545  A
C31          H36   1.066       .  S
C32          C33   1.400       .  A
C32         C349   1.401       .  A
C33         C352   1.410       .  A
C33          H37   1.083       .  S
C34         C343   1.503       .  S
C34         C351   1.410   1_545  A
C34         C141   1.413       .  A
C35         C246   1.413   1_554  A
C35          H38   1.084       .  S
C39         C105   1.474       .  S
C39          C40   1.399       .  A
C39          C44   1.400       .  A
C40         C147   1.403       .  A
C40          H45   1.068       .  S
C41          C42   1.400       .  A
C41         C252   1.403       .  A
C42         C255   1.402       .  A
C42          H46   1.083       .  S
C43          C44   1.404       .  A
C43         C148   1.402       .  A
C44          H47   1.084       .  S
C48          C49   1.393       .  A
C48          C53   1.398       .  A
C49         C792   1.400   1_455  A
C49         H690   1.065       .  S
C50          C99   1.479       .  S
C50          C51   1.400       .  A
C50         C897   1.400       .  A
C51         C900   1.412   1_554  A
C51          H55   1.083       .  S
C52         C663   1.501       .  S
C52          C53   1.410       .  A
C52         C793   1.412   1_455  A
C53          H56   1.084       .  S
H54         C685   1.065       .  S
C57         C104   1.471       .  S
C57          C58   1.398       .  A
C57          C62   1.399       .  A
C58          C59   1.404       .  A
C58          H63   1.084       .  S
C59         C660   1.492       .  S
C59         C802   1.404       .  A
C60          C61   1.400       .  A
C60         C907   1.404       .  A
C60          H64   1.083       .  S
C61         C910   1.403   1_455  A
C62         C803   1.403       .  A
C62          H65   1.069       .  S
C66          C71   1.402       .  A
C66         C279   1.400   1_554  A
C67         C172   1.400       .  A
C67         C386   1.405       .  A
C67          H72   1.070       .  S
C68         C102   1.481       .  S
C68          C69   1.399       .  A
C68         C385   1.405   1_545  A
C69         C388   1.401       .  A
C69          H73   1.083       .  S
C70         C346   1.493       .  S
C70         C387   1.401       .  A
C70         C177   1.406       .  A
C71         C282   1.406   1_554  A
C71          H74   1.084       .  S
C75          C76   1.390       .  A
C75          C80   1.400       .  A
C76         C183   1.401       .  A
C76          H81   1.062       .  S
C77          C85   1.483       .  S
C77          C78   1.403       .  A
C77         C288   1.401       .  A
C78         C291   1.414   1_554  A
C78          H82   1.083       .  S
C79          C80   1.412       .  A
C79         C184   1.414       .  A
C80          H83   1.084       .  S
O84         C100   1.280       .  A
O84         Zn90   2.056       .  S
C85         O101   1.281       .  A
C85          O98   1.275       .  A
O86          C99   1.274       .  A
O86         Cd93   2.082       .  S
O87         C105   1.279       .  A
O87         Cd96   2.097       .  S
O88         C102   1.275       .  A
O88         Cd92   2.089       .  S
O89         C100   1.271       .  A
O89         Cd92   2.057       .  S
Zn90        O101   2.067       .  S
Zn90        O103   2.061       .  S
Zn90         O95   1.945       .  S
O91         C102   1.276       .  A
O91         Cd96   2.062       .  S
Cd92         O94   2.058       .  S
Cd92         O95   2.010       .  S
Cd93         O97   2.078       .  S
Cd93        O106   2.050       .  S
Cd93         O95   2.010       .  S
O94         C104   1.273       .  A
O95         Cd96   2.008       .  S
Cd96         O98   2.086       .  S
O97         C104   1.276       .  A
C99         O103   1.281       .  A
C105        O106   1.272       .  A
O107        C123   1.277       .  A
O107       Zn113   2.036       .  S
C108        O124   1.278       .  A
C108        O121   1.271       .  A
C108        C181   1.473       .  S
O109        C122   1.275       .  A
O109       Cd116   2.085       .  S
O110        C128   1.278       .  A
O110       Cd119   2.099       .  S
O111        C125   1.277       .  A
O111       Cd115   2.093       .  S
O112        C123   1.272       .  A
O112       Cd115   2.062       .  S
Zn113       O124   2.046       .  S
Zn113       O126   2.048       .  S
Zn113       O118   1.943       .  S
O114        C125   1.276       .  A
O114       Cd119   2.064       .  S
Cd115       O117   2.061       .  S
Cd115       O118   2.006       .  S
Cd116       O120   2.095       .  S
Cd116       O129   2.060       .  S
Cd116       O118   2.006       .  S
O117        C127   1.274       .  A
O118       Cd119   2.005       .  S
Cd119       O121   2.059       .  S
O120        C127   1.279       .  A
C122        O126   1.279       .  A
C122        C138   1.476       .  S
C123        C154   1.470       .  S
C125        C167   1.482       .  S
C127        C172   1.478       .  S
C128        O129   1.276       .  A
C128        C147   1.484       .  S
C130        C801   1.492       .  S
C130       C1085   1.425   1_455  A
C130        C135   1.423       .  A
C131        C458   1.503       .  S
C131       C1084   1.425       .  A
C131        C132   1.418       .  A
C132        C149   1.491       .  S
C132        C133   1.421       .  A
C133        C794   1.501       .  S
C133       C1088   1.424       .  A
C134        C494   1.493       .  S
C134       C1087   1.424   1_545  A
C134        C135   1.420       .  A
C135        C185   1.504       .  S
C136        C206   1.474       .  S
C136        C141   1.402       .  A
C137        C242   1.393       .  A
C137        C456   1.401   1_545  A
C137        H142   1.066       .  S
C138        C455   1.401       .  A
C138        C139   1.400       .  A
C139        C458   1.410       .  A
C139        H143   1.083       .  S
C140        C449   1.503       .  S
C140        C457   1.410   1_545  A
C140        C247   1.413       .  A
C141        H144   1.084       .  S
C145        C211   1.474       .  S
C145        C146   1.399       .  A
C145        C150   1.400       .  A
C146        C253   1.403       .  A
C146        H151   1.068       .  S
C147        C148   1.400       .  A
C148        H152   1.083       .  S
C149        C254   1.402       .  A
C149        C150   1.404       .  A
C150        H153   1.084       .  S
C154        C155   1.393       .  A
C154        C159   1.398       .  A
C155        C898   1.400   1_455  A
C155        H796   1.065       .  S
C156        C205   1.479       .  S
C156        C685   1.400       .  A
C156        C157   1.400       .  A
C157        C688   1.412       .  A
C157        H161   1.083       .  S
C158        C769   1.501       .  S
C158        C899   1.412   1_455  A
C158        C159   1.410       .  A
C159        H162   1.084       .  S
H160        C791   1.065       .  S
C163        C210   1.471       .  S
C163        C164   1.398       .  A
C163        C168   1.399       .  A
C164        C165   1.404       .  A
C164        H169   1.084       .  S
C165        C766   1.492       .  S
C165        C908   1.404       .  A
C166        C695   1.404       .  A
C166        C167   1.400       .  A
C166        H170   1.083       .  S
C167        C698   1.403   1_455  A
C168        C909   1.403       .  A
C168        H171   1.069       .  S
C172        C177   1.402       .  A
C173        C278   1.400       .  A
C173        C492   1.405       .  A
C173        H178   1.070       .  S
C174        C208   1.481       .  S
C174        C491   1.405   1_545  A
C174        C175   1.399       .  A
C175        C494   1.401       .  A
C175        H179   1.083       .  S
C176        C452   1.493       .  S
C176        C493   1.401       .  A
C176        C283   1.406       .  A
C177        H180   1.084       .  S
C181        C182   1.390       .  A
C181        C186   1.400       .  A
C182        C289   1.401       .  A
C182        H187   1.062       .  S
C183        C191   1.483       .  S
C183        C184   1.403       .  A
C184        H188   1.083       .  S
C185        C290   1.414       .  A
C185        C186   1.412       .  A
C186        H189   1.084       .  S
O190        C206   1.280       .  A
O190       Zn196   2.056       .  S
C191        O207   1.281       .  A
C191        O204   1.275       .  A
O192        C205   1.274       .  A
O192       Cd199   2.082       .  S
O193        C211   1.279       .  A
O193       Cd202   2.097       .  S
O194        C208   1.275       .  A
O194       Cd198   2.089       .  S
O195        C206   1.271       .  A
O195       Cd198   2.057       .  S
Zn196       O207   2.067       .  S
Zn196       O209   2.061       .  S
Zn196       O201   1.945       .  S
O197        C208   1.276       .  A
O197       Cd202   2.062       .  S
Cd198       O200   2.058       .  S
Cd198       O201   2.010       .  S
Cd199       O203   2.078       .  S
Cd199       O212   2.050       .  S
Cd199       O201   2.010       .  S
O200        C210   1.273       .  A
O201       Cd202   2.007       .  S
Cd202       O204   2.086       .  S
O203        C210   1.276       .  A
C205        O209   1.281       .  A
C211        O212   1.272       .  A
O213        C229   1.277       .  A
O213       Zn219   2.037       .  S
C214        O230   1.278       .  A
C214        O227   1.271       .  A
C214        C287   1.473       .  S
O215        C228   1.275       .  A
O215       Cd222   2.085       .  S
O216        C234   1.278       .  A
O216       Cd225   2.099       .  S
O217        C231   1.277       .  A
O217       Cd221   2.093       .  S
O218        C229   1.272       .  A
O218       Cd221   2.062       .  S
Zn219       O230   2.046       .  S
Zn219       O232   2.048       .  S
Zn219       O224   1.943       .  S
O220        C231   1.276       .  A
O220       Cd225   2.064       .  S
Cd221       O223   2.061       .  S
Cd221       O224   2.006       .  S
Cd222       O226   2.095       .  S
Cd222       O235   2.060       .  S
Cd222       O224   2.006       .  S
O223        C233   1.274       .  A
O224       Cd225   2.005       .  S
Cd225       O227   2.059       .  S
O226        C233   1.279       .  A
C228        O232   1.279       .  A
C228        C244   1.476       .  S
C229        C260   1.470       .  S
C231        C273   1.482       .  S
C233        C278   1.478       .  S
C234        O235   1.276       .  A
C234        C253   1.484       .  S
C236        C907   1.492   1_556  S
C236       C1191   1.425   1_455  A
C236        C241   1.423       .  A
C237        C564   1.503       .  S
C237       C1190   1.425       .  A
C237        C238   1.418       .  A
C238        C255   1.491   1_556  S
C238        C239   1.421       .  A
C239        C900   1.501       .  S
C239       C1194   1.424       .  A
C240        C600   1.493       .  S
C240       C1193   1.424   1_545  A
C240        C241   1.420       .  A
C241        C291   1.504       .  S
C242        C312   1.474       .  S
C242        C247   1.402       .  A
C243        C562   1.401   1_545  A
C243        H248   1.066       .  S
C244        C561   1.401       .  A
C244        C245   1.400       .  A
C245        C564   1.410       .  A
C245        H249   1.083       .  S
C246        C555   1.503       .  S
C246        C563   1.410   1_545  A
C247        H250   1.084       .  S
C251        C317   1.474       .  S
C251        C252   1.399   1_556  A
C251        C256   1.400       .  A
C252        H257   1.068       .  S
C253        C254   1.400       .  A
C254        H258   1.083       .  S
C255        C256   1.404   1_554  A
C256        H259   1.084       .  S
C260        C261   1.393   1_556  A
C260        C265   1.398       .  A
C261        C686   1.400   1_455  A
C261        H902   1.065       .  S
C262        C311   1.479       .  S
C262        C791   1.400       .  A
C262        C263   1.400       .  A
C263        C794   1.412       .  A
C263        H267   1.083       .  S
C264        C875   1.501       .  S
C264        C687   1.412   1_456  A
C264        C265   1.410       .  A
C265        H268   1.084       .  S
H266        C897   1.065       .  S
C269        C316   1.471       .  S
C269        C270   1.398       .  A
C269        C274   1.399   1_556  A
C270        C271   1.404   1_556  A
C270        H275   1.084       .  S
C271        C872   1.492   1_554  S
C271        C696   1.404       .  A
C272        C801   1.404       .  A
C272        C273   1.400       .  A
C272        H276   1.083       .  S
C273        C804   1.403   1_455  A
C274        C697   1.403       .  A
C274        H277   1.069       .  S
C278        C283   1.402       .  A
C279        C598   1.405       .  A
C279        H284   1.070       .  S
C280        C314   1.481       .  S
C280        C597   1.405   1_545  A
C280        C281   1.399       .  A
C281        C600   1.401       .  A
C281        H285   1.083       .  S
C282        C558   1.493       .  S
C282        C599   1.401       .  A
C283        H286   1.084       .  S
C287        C288   1.390   1_556  A
C287        C292   1.400       .  A
C288        H293   1.062       .  S
C289        C297   1.483       .  S
C289        C290   1.403       .  A
C290        H294   1.083       .  S
C291        C292   1.412       .  A
C292        H295   1.084       .  S
O296        C312   1.280       .  A
O296       Zn302   2.056       .  S
C297        O313   1.281       .  A
C297        O310   1.275       .  A
O298        C311   1.274       .  A
O298       Cd305   2.082       .  S
O299        C317   1.279       .  A
O299       Cd308   2.097       .  S
O300        C314   1.275       .  A
O300       Cd304   2.089       .  S
O301        C312   1.271       .  A
O301       Cd304   2.057       .  S
Zn302       O313   2.067       .  S
Zn302       O315   2.061       .  S
Zn302       O307   1.945       .  S
O303        C314   1.276       .  A
O303       Cd308   2.062       .  S
Cd304       O306   2.058       .  S
Cd304       O307   2.010       .  S
Cd305       O309   2.078       .  S
Cd305       O318   2.050       .  S
Cd305       O307   2.010       .  S
O306        C316   1.273       .  A
O307       Cd308   2.007       .  S
Cd308       O310   2.086       .  S
O309        C316   1.276       .  A
C311        O315   1.281       .  A
C317        O318   1.272       .  A
O319        C335   1.277       .  A
O319       Zn325   2.037       .  S
C320        O336   1.278       .  A
C320        O333   1.271       .  A
C320        C393   1.473       .  S
O321        C334   1.275       .  A
O321       Cd328   2.085       .  S
O322        C340   1.278       .  A
O322       Cd331   2.099       .  S
O323        C337   1.277       .  A
O323       Cd327   2.093       .  S
O324        C335   1.272       .  A
O324       Cd327   2.062       .  S
Zn325       O336   2.046       .  S
Zn325       O338   2.048       .  S
Zn325       O330   1.943       .  S
O326        C337   1.276       .  A
O326       Cd331   2.064       .  S
Cd327       O329   2.061       .  S
Cd327       O330   2.006       .  S
Cd328       O332   2.095       .  S
Cd328       O341   2.060       .  S
Cd328       O330   2.006       .  S
O329        C339   1.274       .  A
O330       Cd331   2.005       .  S
Cd331       O333   2.059       .  S
O332        C339   1.279       .  A
C334        O338   1.279       .  A
C334        C350   1.476       .  S
C335        C366   1.470       .  S
C337        C379   1.482       .  S
C339        C384   1.478       .  S
C340        O341   1.276       .  A
C340        C359   1.484       .  S
C342       C1013   1.492       .  S
C342        C661   1.425   1_455  A
C342        C347   1.423       .  A
C343        C660   1.425       .  A
C343        C344   1.418   1_545  A
C344        C361   1.491       .  S
C344        C345   1.421       .  A
C345       C1006   1.501       .  S
C345        C664   1.424   1_565  A
C346        C663   1.424       .  A
C346        C347   1.420       .  A
C347        C397   1.504       .  S
C348        C418   1.474       .  S
C348        C561   1.393   1_554  A
C348        C353   1.402       .  A
C349        C454   1.393       .  A
C349        H354   1.066       .  S
C350        C351   1.400       .  A
C351        H355   1.083       .  S
C352        C459   1.413       .  A
C353        C564   1.413   1_554  A
C353        H356   1.084       .  S
C357        C423   1.474       .  S
C357        C358   1.399       .  A
C357        C362   1.400       .  A
C358        C465   1.403       .  A
C358        H363   1.068       .  S
C359        C570   1.403       .  A
C359        C360   1.400       .  A
C360        C573   1.402       .  A
C360        H364   1.083       .  S
C361        C466   1.402       .  A
C361        C362   1.404       .  A
C362        H365   1.084       .  S
C366        C367   1.393       .  A
C366        C371   1.398       .  A
C367       C1110   1.400   1_455  A
C367       H1008   1.065       .  S
C368        C417   1.479       .  S
C368       C1215   1.400       .  A
C368        C369   1.400       .  A
C369       C1218   1.412   1_554  A
C369        H373   1.083       .  S
C370        C981   1.501       .  S
C370       C1111   1.412   1_455  A
C370        C371   1.410       .  A
C371        H374   1.084       .  S
H372       C1003   1.065       .  S
C375        C422   1.471       .  S
C375        C376   1.398       .  A
C375        C380   1.399       .  A
C376        C377   1.404       .  A
C376        H381   1.084       .  S
C377        C978   1.492       .  S
C377       C1120   1.404       .  A
C378       C1225   1.404       .  A
C378        C379   1.400       .  A
C378        H382   1.083       .  S
C379       C1228   1.403   1_455  A
C380       C1121   1.403       .  A
C380        H383   1.069       .  S
C384        C597   1.400   1_554  A
C384        C389   1.402       .  A
C385        C490   1.400       .  A
C385        H390   1.070       .  S
C386        C420   1.481       .  S
C386        C387   1.399       .  A
C387        H391   1.083       .  S
C388        C495   1.406   1_545  A
C389        C600   1.406   1_564  A
C389        H392   1.084       .  S
C393        C394   1.390       .  A
C393        C398   1.400       .  A
C394        C501   1.401       .  A
C394        H399   1.062       .  S
C395        C403   1.483       .  S
C395        C606   1.401       .  A
C395        C396   1.403       .  A
C396        C609   1.414   1_554  A
C396        H400   1.083       .  S
C397        C502   1.414       .  A
C397        C398   1.412       .  A
C398        H401   1.084       .  S
O402        C418   1.280       .  A
O402       Zn408   2.056       .  S
C403        O419   1.281       .  A
C403        O416   1.275       .  A
O404        C417   1.274       .  A
O404       Cd411   2.082       .  S
O405        C423   1.279       .  A
O405       Cd414   2.097       .  S
O406        C420   1.275       .  A
O406       Cd410   2.089       .  S
O407        C418   1.271       .  A
O407       Cd410   2.057       .  S
Zn408       O419   2.067       .  S
Zn408       O421   2.061       .  S
Zn408       O413   1.945       .  S
O409        C420   1.276       .  A
O409       Cd414   2.062       .  S
Cd410       O412   2.058       .  S
Cd410       O413   2.010       .  S
Cd411       O415   2.078       .  S
Cd411       O424   2.050       .  S
Cd411       O413   2.010       .  S
O412        C422   1.273       .  A
O413       Cd414   2.008       .  S
Cd414       O416   2.086       .  S
O415        C422   1.276       .  A
C417        O421   1.281       .  A
C423        O424   1.272       .  A
O425        C441   1.277       .  A
O425       Zn431   2.036       .  S
C426        O442   1.278       .  A
C426        O439   1.271       .  A
C426        C499   1.473       .  S
O427        C440   1.275       .  A
O427       Cd434   2.085       .  S
O428        C446   1.278       .  A
O428       Cd437   2.099       .  S
O429        C443   1.277       .  A
O429       Cd433   2.093       .  S
O430        C441   1.272       .  A
O430       Cd433   2.062       .  S
Zn431       O442   2.046       .  S
Zn431       O444   2.048       .  S
Zn431       O436   1.943       .  S
O432        C443   1.276       .  A
O432       Cd437   2.064       .  S
Cd433       O435   2.061       .  S
Cd433       O436   2.006       .  S
Cd434       O438   2.095       .  S
Cd434       O447   2.060       .  S
Cd434       O436   2.006       .  S
O435        C445   1.274       .  A
O436       Cd437   2.005       .  S
Cd437       O439   2.059       .  S
O438        C445   1.279       .  A
C440        O444   1.279       .  A
C440        C456   1.476       .  S
C441        C472   1.470       .  S
C443        C485   1.482       .  S
C445        C490   1.478       .  S
C446        O447   1.276       .  A
C446        C465   1.484       .  S
C448       C1119   1.492       .  S
C448        C767   1.425   1_455  A
C448        C453   1.423       .  A
C449        C766   1.425       .  A
C449        C450   1.418   1_545  A
C450        C467   1.491       .  S
C450        C451   1.421       .  A
C451       C1112   1.501       .  S
C451        C770   1.424   1_565  A
C452        C769   1.424       .  A
C452        C453   1.420       .  A
C453        C503   1.504       .  S
C454        C524   1.474       .  S
C454        C459   1.402       .  A
C455        C560   1.393       .  A
C455        H460   1.066       .  S
C456        C457   1.400       .  A
C457        H461   1.083       .  S
C458        C565   1.413       .  A
C459        H462   1.084       .  S
C463        C529   1.474       .  S
C463        C464   1.399       .  A
C463        C468   1.400       .  A
C464        C571   1.403       .  A
C464        H469   1.068       .  S
C465        C466   1.400       .  A
C466        H470   1.083       .  S
C467        C572   1.402       .  A
C467        C468   1.404       .  A
C468        H471   1.084       .  S
C472        C473   1.393       .  A
C472        C477   1.398       .  A
C473       C1216   1.400   1_455  A
C473       H1114   1.065       .  S
C474        C523   1.479       .  S
C474       C1003   1.400       .  A
C474        C475   1.400       .  A
C475       C1006   1.412       .  A
C475        H479   1.083       .  S
C476       C1087   1.501       .  S
C476       C1217   1.412   1_455  A
C476        C477   1.410       .  A
C477        H480   1.084       .  S
H478       C1109   1.065       .  S
C481        C528   1.471       .  S
C481        C482   1.398       .  A
C481        C486   1.399       .  A
C482        C483   1.404       .  A
C482        H487   1.084       .  S
C483       C1084   1.492       .  S
C483       C1226   1.404       .  A
C484       C1013   1.404       .  A
C484        C485   1.400       .  A
C484        H488   1.083       .  S
C485       C1016   1.403   1_455  A
C486       C1227   1.403       .  A
C486        H489   1.069       .  S
C490        C495   1.402       .  A
C491        C596   1.400       .  A
C491        H496   1.070       .  S
C492        C526   1.481       .  S
C492        C493   1.399       .  A
C493        H497   1.083       .  S
C494        C601   1.406   1_545  A
C495        H498   1.084       .  S
C499        C500   1.390       .  A
C499        C504   1.400       .  A
C500        C607   1.401       .  A
C500        H505   1.062       .  S
C501        C509   1.483       .  S
C501        C502   1.403       .  A
C502        H506   1.083       .  S
C503        C608   1.414       .  A
C503        C504   1.412       .  A
C504        H507   1.084       .  S
O508        C524   1.280       .  A
O508       Zn514   2.056       .  S
C509        O525   1.281       .  A
C509        O522   1.275       .  A
O510        C523   1.274       .  A
O510       Cd517   2.082       .  S
O511        C529   1.279       .  A
O511       Cd520   2.097       .  S
O512        C526   1.275       .  A
O512       Cd516   2.089       .  S
O513        C524   1.271       .  A
O513       Cd516   2.057       .  S
Zn514       O525   2.067       .  S
Zn514       O527   2.061       .  S
Zn514       O519   1.945       .  S
O515        C526   1.276       .  A
O515       Cd520   2.062       .  S
Cd516       O518   2.058       .  S
Cd516       O519   2.010       .  S
Cd517       O521   2.078       .  S
Cd517       O530   2.050       .  S
Cd517       O519   2.010       .  S
O518        C528   1.273       .  A
O519       Cd520   2.007       .  S
Cd520       O522   2.086       .  S
O521        C528   1.276       .  A
C523        O527   1.281       .  A
C529        O530   1.272       .  A
O531        C547   1.277       .  A
O531       Zn537   2.037       .  S
C532        O548   1.278       .  A
C532        O545   1.271       .  A
C532        C605   1.473       .  S
O533        C546   1.275       .  A
O533       Cd540   2.085       .  S
O534        C552   1.278       .  A
O534       Cd543   2.099       .  S
O535        C549   1.277       .  A
O535       Cd539   2.093       .  S
O536        C547   1.272       .  A
O536       Cd539   2.062       .  S
Zn537       O548   2.046       .  S
Zn537       O550   2.048       .  S
Zn537       O542   1.943       .  S
O538        C549   1.276       .  A
O538       Cd543   2.064       .  S
Cd539       O541   2.061       .  S
Cd539       O542   2.006       .  S
Cd540       O544   2.095       .  S
Cd540       O553   2.060       .  S
Cd540       O542   2.006       .  S
O541        C551   1.274       .  A
O542       Cd543   2.005       .  S
Cd543       O545   2.059       .  S
O544        C551   1.279       .  A
C546        O550   1.279       .  A
C546        C562   1.476       .  S
C547        C578   1.470       .  S
C549        C591   1.482       .  S
C551        C596   1.478       .  S
C552        O553   1.276       .  A
C552        C571   1.484       .  S
C554       C1225   1.492   1_556  S
C554        C873   1.425   1_455  A
C554        C559   1.423       .  A
C555        C872   1.425       .  A
C555        C556   1.418   1_545  A
C556        C573   1.491   1_556  S
C556        C557   1.421       .  A
C557       C1218   1.501       .  S
C557        C876   1.424   1_565  A
C558        C875   1.424       .  A
C558        C559   1.420       .  A
C559        C609   1.504       .  S
C560        C630   1.474       .  S
C560        C565   1.402       .  A
C561        H566   1.066       .  S
C562        C563   1.400       .  A
C563        H567   1.083       .  S
C565        H568   1.084       .  S
C569        C635   1.474       .  S
C569        C570   1.399   1_556  A
C569        C574   1.400       .  A
C570        H575   1.068       .  S
C571        C572   1.400       .  A
C572        H576   1.083       .  S
C573        C574   1.404   1_554  A
C574        H577   1.084       .  S
C578        C579   1.393   1_556  A
C578        C583   1.398       .  A
C579       C1004   1.400   1_455  A
C579       H1220   1.065       .  S
C580        C629   1.479       .  S
C580       C1109   1.400       .  A
C580        C581   1.400       .  A
C581       C1112   1.412       .  A
C581        H585   1.083       .  S
C582       C1193   1.501       .  S
C582       C1005   1.412   1_456  A
C582        C583   1.410       .  A
C583        H586   1.084       .  S
H584       C1215   1.065       .  S
C587        C634   1.471       .  S
C587        C588   1.398       .  A
C587        C592   1.399   1_556  A
C588        C589   1.404   1_556  A
C588        H593   1.084       .  S
C589       C1190   1.492   1_554  S
C589       C1014   1.404       .  A
C590       C1119   1.404       .  A
C590        C591   1.400       .  A
C590        H594   1.083       .  S
C591       C1122   1.403   1_455  A
C592       C1015   1.403       .  A
C592        H595   1.069       .  S
C596        C601   1.402       .  A
C597        H602   1.070       .  S
C598        C632   1.481       .  S
C598        C599   1.399       .  A
C599        H603   1.083       .  S
C601        H604   1.084       .  S
C605        C606   1.390   1_556  A
C605        C610   1.400       .  A
C606        H611   1.062       .  S
C607        C615   1.483       .  S
C607        C608   1.403       .  A
C608        H612   1.083       .  S
C609        C610   1.412       .  A
C610        H613   1.084       .  S
O614        C630   1.280       .  A
O614       Zn620   2.056       .  S
C615        O631   1.281       .  A
C615        O628   1.275       .  A
O616        C629   1.274       .  A
O616       Cd623   2.082       .  S
O617        C635   1.279       .  A
O617       Cd626   2.097       .  S
O618        C632   1.275       .  A
O618       Cd622   2.089       .  S
O619        C630   1.271       .  A
O619       Cd622   2.057       .  S
Zn620       O631   2.067       .  S
Zn620       O633   2.061       .  S
Zn620       O625   1.945       .  S
O621        C632   1.276       .  A
O621       Cd626   2.062       .  S
Cd622       O624   2.058       .  S
Cd622       O625   2.010       .  S
Cd623       O627   2.078       .  S
Cd623       O636   2.050       .  S
Cd623       O625   2.010       .  S
O624        C634   1.273       .  A
O625       Cd626   2.007       .  S
Cd626       O628   2.086       .  S
O627        C634   1.276       .  A
C629        O633   1.281       .  A
C635        O636   1.272       .  A
O637        C653   1.277       .  A
O637       Zn643   2.037       .  S
C638        O654   1.278       .  A
C638        O651   1.271       .  A
C638        C711   1.473       .  S
O639        C652   1.275       .  A
O639       Cd646   2.085       .  S
O640        C658   1.278       .  A
O640       Cd649   2.099       .  S
O641        C655   1.277       .  A
O641       Cd645   2.093       .  S
O642        C653   1.272       .  A
O642       Cd645   2.062       .  S
Zn643       O654   2.046       .  S
Zn643       O656   2.048       .  S
Zn643       O648   1.943       .  S
O644        C655   1.276       .  A
O644       Cd649   2.064       .  S
Cd645       O647   2.061       .  S
Cd645       O648   2.006       .  S
Cd646       O650   2.095       .  S
Cd646       O659   2.060       .  S
Cd646       O648   2.006       .  S
O647        C657   1.274       .  A
O648       Cd649   2.005       .  S
Cd649       O651   2.059       .  S
O650        C657   1.279       .  A
C652        O656   1.279       .  A
C652        C668   1.476       .  S
C653        C684   1.470       .  S
C655        C697   1.482       .  S
C657        C702   1.478       .  S
C658        O659   1.276       .  A
C658        C677   1.484       .  S
C660        C665   1.423       .  A
C661        C988   1.503       .  S
C661        C662   1.418       .  A
C662        C679   1.491       .  S
C662        C663   1.421   1_655  A
C664       C1024   1.493       .  S
C664        C665   1.420       .  A
C665        C715   1.504       .  S
C666        C736   1.474       .  S
C666        C879   1.393   1_554  A
C666        C671   1.402       .  A
C667        C772   1.393       .  A
C667        C986   1.401   1_545  A
C667        H672   1.066       .  S
C668        C985   1.401       .  A
C668        C669   1.400       .  A
C669        C988   1.410       .  A
C669        H673   1.083       .  S
C670        C979   1.503       .  S
C670        C987   1.410   1_545  A
C670        C777   1.413       .  A
C671        C882   1.413   1_554  A
C671        H674   1.084       .  S
C675        C741   1.474       .  S
C675        C676   1.399       .  A
C675        C680   1.400       .  A
C676        C783   1.403       .  A
C676        H681   1.068       .  S
C677        C888   1.403       .  A
C677        C678   1.400       .  A
C678        C891   1.402       .  A
C678        H682   1.083       .  S
C679        C784   1.402       .  A
C679        C680   1.404       .  A
C680        H683   1.084       .  S
C684        C685   1.393       .  A
C684        C689   1.398       .  A
C686        C735   1.479       .  S
C686        C687   1.400       .  A
C687        H691   1.083       .  S
C688        C689   1.410       .  A
C689        H692   1.084       .  S
C693        C740   1.471       .  S
C693        C694   1.398       .  A
C693        C698   1.399       .  A
C694        C695   1.404   1_655  A
C694        H699   1.084       .  S
C696        C697   1.400       .  A
C696        H700   1.083       .  S
C698        H701   1.069       .  S
C702        C915   1.400   1_554  A
C702        C707   1.402       .  A
C703        C808   1.400       .  A
C703       C1022   1.405       .  A
C703        H708   1.070       .  S
C704        C738   1.481       .  S
C704       C1021   1.405   1_545  A
C704        C705   1.399       .  A
C705       C1024   1.401       .  A
C705        H709   1.083       .  S
C706        C982   1.493       .  S
C706       C1023   1.401       .  A
C706        C813   1.406       .  A
C707        C918   1.406   1_554  A
C707        H710   1.084       .  S
C711        C712   1.390       .  A
C711        C716   1.400       .  A
C712        C819   1.401       .  A
C712        H717   1.062       .  S
C713        C721   1.483       .  S
C713        C924   1.401       .  A
C713        C714   1.403       .  A
C714        C927   1.414   1_554  A
C714        H718   1.083       .  S
C715        C820   1.414       .  A
C715        C716   1.412       .  A
C716        H719   1.084       .  S
O720        C736   1.280       .  A
O720       Zn726   2.056       .  S
C721        O737   1.281       .  A
C721        O734   1.275       .  A
O722        C735   1.274       .  A
O722       Cd729   2.082       .  S
O723        C741   1.279       .  A
O723       Cd732   2.097       .  S
O724        C738   1.275       .  A
O724       Cd728   2.089       .  S
O725        C736   1.271       .  A
O725       Cd728   2.057       .  S
Zn726       O737   2.067       .  S
Zn726       O739   2.061       .  S
Zn726       O731   1.945       .  S
O727        C738   1.276       .  A
O727       Cd732   2.062       .  S
Cd728       O730   2.058       .  S
Cd728       O731   2.010       .  S
Cd729       O733   2.078       .  S
Cd729       O742   2.050       .  S
Cd729       O731   2.010       .  S
O730        C740   1.273       .  A
O731       Cd732   2.008       .  S
Cd732       O734   2.086       .  S
O733        C740   1.276       .  A
C735        O739   1.281       .  A
C741        O742   1.272       .  A
O743        C759   1.277       .  A
O743       Zn749   2.036       .  S
C744        O760   1.278       .  A
C744        O757   1.271       .  A
C744        C817   1.473       .  S
O745        C758   1.275       .  A
O745       Cd752   2.085       .  S
O746        C764   1.278       .  A
O746       Cd755   2.099       .  S
O747        C761   1.277       .  A
O747       Cd751   2.093       .  S
O748        C759   1.272       .  A
O748       Cd751   2.062       .  S
Zn749       O760   2.046       .  S
Zn749       O762   2.048       .  S
Zn749       O754   1.943       .  S
O750        C761   1.276       .  A
O750       Cd755   2.064       .  S
Cd751       O753   2.061       .  S
Cd751       O754   2.006       .  S
Cd752       O756   2.095       .  S
Cd752       O765   2.060       .  S
Cd752       O754   2.006       .  S
O753        C763   1.274       .  A
O754       Cd755   2.005       .  S
Cd755       O757   2.059       .  S
O756        C763   1.279       .  A
C758        O762   1.279       .  A
C758        C774   1.476       .  S
C759        C790   1.470       .  S
C761        C803   1.482       .  S
C763        C808   1.478       .  S
C764        O765   1.276       .  A
C764        C783   1.484       .  S
C766        C771   1.423       .  A
C767       C1094   1.503       .  S
C767        C768   1.418       .  A
C768        C785   1.491       .  S
C768        C769   1.421   1_655  A
C770       C1130   1.493       .  S
C770        C771   1.420       .  A
C771        C821   1.504       .  S
C772        C842   1.474       .  S
C772        C777   1.402       .  A
C773        C878   1.393       .  A
C773       C1092   1.401   1_545  A
C773        H778   1.066       .  S
C774       C1091   1.401       .  A
C774        C775   1.400       .  A
C775       C1094   1.410       .  A
C775        H779   1.083       .  S
C776       C1085   1.503       .  S
C776       C1093   1.410   1_545  A
C776        C883   1.413       .  A
C777        H780   1.084       .  S
C781        C847   1.474       .  S
C781        C782   1.399       .  A
C781        C786   1.400       .  A
C782        C889   1.403       .  A
C782        H787   1.068       .  S
C783        C784   1.400       .  A
C784        H788   1.083       .  S
C785        C890   1.402       .  A
C785        C786   1.404       .  A
C786        H789   1.084       .  S
C790        C791   1.393       .  A
C790        C795   1.398       .  A
C792        C841   1.479       .  S
C792        C793   1.400       .  A
C793        H797   1.083       .  S
C794        C795   1.410       .  A
C795        H798   1.084       .  S
C799        C846   1.471       .  S
C799        C800   1.398       .  A
C799        C804   1.399       .  A
C800        C801   1.404   1_655  A
C800        H805   1.084       .  S
C802        C803   1.400       .  A
C802        H806   1.083       .  S
C804        H807   1.069       .  S
C808        C813   1.402       .  A
C809        C914   1.400       .  A
C809       C1128   1.405       .  A
C809        H814   1.070       .  S
C810        C844   1.481       .  S
C810       C1127   1.405   1_545  A
C810        C811   1.399       .  A
C811       C1130   1.401       .  A
C811        H815   1.083       .  S
C812       C1088   1.493       .  S
C812       C1129   1.401       .  A
C812        C919   1.406       .  A
C813        H816   1.084       .  S
C817        C818   1.390       .  A
C817        C822   1.400       .  A
C818        C925   1.401       .  A
C818        H823   1.062       .  S
C819        C827   1.483       .  S
C819        C820   1.403       .  A
C820        H824   1.083       .  S
C821        C926   1.414       .  A
C821        C822   1.412       .  A
C822        H825   1.084       .  S
O826        C842   1.280       .  A
O826       Zn832   2.056       .  S
C827        O843   1.281       .  A
C827        O840   1.275       .  A
O828        C841   1.274       .  A
O828       Cd835   2.082       .  S
O829        C847   1.279       .  A
O829       Cd838   2.097       .  S
O830        C844   1.275       .  A
O830       Cd834   2.089       .  S
O831        C842   1.271       .  A
O831       Cd834   2.057       .  S
Zn832       O843   2.067       .  S
Zn832       O845   2.061       .  S
Zn832       O837   1.945       .  S
O833        C844   1.276       .  A
O833       Cd838   2.062       .  S
Cd834       O836   2.058       .  S
Cd834       O837   2.010       .  S
Cd835       O839   2.078       .  S
Cd835       O848   2.050       .  S
Cd835       O837   2.010       .  S
O836        C846   1.273       .  A
O837       Cd838   2.007       .  S
Cd838       O840   2.086       .  S
O839        C846   1.276       .  A
C841        O845   1.281       .  A
C847        O848   1.272       .  A
O849        C865   1.277       .  A
O849       Zn855   2.037       .  S
C850        O866   1.278       .  A
C850        O863   1.271       .  A
C850        C923   1.473       .  S
O851        C864   1.275       .  A
O851       Cd858   2.085       .  S
O852        C870   1.278       .  A
O852       Cd861   2.099       .  S
O853        C867   1.277       .  A
O853       Cd857   2.093       .  S
O854        C865   1.272       .  A
O854       Cd857   2.062       .  S
Zn855       O866   2.046       .  S
Zn855       O868   2.048       .  S
Zn855       O860   1.943       .  S
O856        C867   1.276       .  A
O856       Cd861   2.064       .  S
Cd857       O859   2.061       .  S
Cd857       O860   2.006       .  S
Cd858       O862   2.095       .  S
Cd858       O871   2.060       .  S
Cd858       O860   2.006       .  S
O859        C869   1.274       .  A
O860       Cd861   2.005       .  S
Cd861       O863   2.059       .  S
O862        C869   1.279       .  A
C864        O868   1.279       .  A
C864        C880   1.476       .  S
C865        C896   1.470       .  S
C867        C909   1.482       .  S
C869        C914   1.478       .  S
C870        O871   1.276       .  A
C870        C889   1.484       .  S
C872        C877   1.423       .  A
C873       C1200   1.503       .  S
C873        C874   1.418       .  A
C874        C891   1.491   1_556  S
C874        C875   1.421   1_655  A
C876       C1236   1.493       .  S
C876        C877   1.420       .  A
C877        C927   1.504       .  S
C878        C948   1.474       .  S
C878        C883   1.402       .  A
C879       C1198   1.401   1_545  A
C879        H884   1.066       .  S
C880       C1197   1.401       .  A
C880        C881   1.400       .  A
C881       C1200   1.410       .  A
C881        H885   1.083       .  S
C882       C1191   1.503       .  S
C882       C1199   1.410   1_545  A
C883        H886   1.084       .  S
C887        C953   1.474       .  S
C887        C888   1.399   1_556  A
C887        C892   1.400       .  A
C888        H893   1.068       .  S
C889        C890   1.400       .  A
C890        H894   1.083       .  S
C891        C892   1.404   1_554  A
C892        H895   1.084       .  S
C896        C897   1.393   1_556  A
C896        C901   1.398       .  A
C898        C947   1.479       .  S
C898        C899   1.400       .  A
C899        H903   1.083       .  S
C900        C901   1.410       .  A
C901        H904   1.084       .  S
C905        C952   1.471       .  S
C905        C906   1.398       .  A
C905        C910   1.399   1_556  A
C906        C907   1.404   1_656  A
C906        H911   1.084       .  S
C908        C909   1.400       .  A
C908        H912   1.083       .  S
C910        H913   1.069       .  S
C914        C919   1.402       .  A
C915       C1234   1.405       .  A
C915        H920   1.070       .  S
C916        C950   1.481       .  S
C916       C1233   1.405   1_545  A
C916        C917   1.399       .  A
C917       C1236   1.401       .  A
C917        H921   1.083       .  S
C918       C1194   1.493       .  S
C918       C1235   1.401       .  A
C919        H922   1.084       .  S
C923        C924   1.390   1_556  A
C923        C928   1.400       .  A
C924        H929   1.062       .  S
C925        C933   1.483       .  S
C925        C926   1.403       .  A
C926        H930   1.083       .  S
C927        C928   1.412       .  A
C928        H931   1.084       .  S
O932        C948   1.280       .  A
O932       Zn938   2.056       .  S
C933        O949   1.281       .  A
C933        O946   1.275       .  A
O934        C947   1.274       .  A
O934       Cd941   2.082       .  S
O935        C953   1.279       .  A
O935       Cd944   2.097       .  S
O936        C950   1.275       .  A
O936       Cd940   2.089       .  S
O937        C948   1.271       .  A
O937       Cd940   2.057       .  S
Zn938       O949   2.067       .  S
Zn938       O951   2.061       .  S
Zn938       O943   1.945       .  S
O939        C950   1.276       .  A
O939       Cd944   2.062       .  S
Cd940       O942   2.058       .  S
Cd940       O943   2.010       .  S
Cd941       O945   2.078       .  S
Cd941       O954   2.050       .  S
Cd941       O943   2.010       .  S
O942        C952   1.273       .  A
O943       Cd944   2.007       .  S
Cd944       O946   2.086       .  S
O945        C952   1.276       .  A
C947        O951   1.281       .  A
C953        O954   1.272       .  A
O955        C971   1.277       .  A
O955       Zn961   2.037       .  S
C956        O972   1.278       .  A
C956        O969   1.271       .  A
C956       C1029   1.473       .  S
O957        C970   1.275       .  A
O957       Cd964   2.085       .  S
O958        C976   1.278       .  A
O958       Cd967   2.099       .  S
O959        C973   1.277       .  A
O959       Cd963   2.093       .  S
O960        C971   1.272       .  A
O960       Cd963   2.062       .  S
Zn961       O972   2.046       .  S
Zn961       O974   2.048       .  S
Zn961       O966   1.943       .  S
O962        C973   1.276       .  A
O962       Cd967   2.064       .  S
Cd963       O965   2.061       .  S
Cd963       O966   2.006       .  S
Cd964       O968   2.095       .  S
Cd964       O977   2.060       .  S
Cd964       O966   2.006       .  S
O965        C975   1.274       .  A
O966       Cd967   2.005       .  S
Cd967       O969   2.059       .  S
O968        C975   1.279       .  A
C970        O974   1.279       .  A
C970        C986   1.476       .  S
C971       C1002   1.470       .  S
C973       C1015   1.482       .  S
C975       C1020   1.478       .  S
C976        O977   1.276       .  A
C976        C995   1.484       .  S
C978        C983   1.423       .  A
C979        C980   1.418   1_545  A
C980        C997   1.491       .  S
C980        C981   1.421   1_655  A
C982        C983   1.420       .  A
C983       C1033   1.504       .  S
C984       C1054   1.474       .  S
C984       C1197   1.393   1_554  A
C984        C989   1.402       .  A
C985       C1090   1.393       .  A
C985        H990   1.066       .  S
C986        C987   1.400       .  A
C987        H991   1.083       .  S
C988       C1095   1.413       .  A
C989       C1200   1.413   1_554  A
C989        H992   1.084       .  S
C993       C1059   1.474       .  S
C993        C994   1.399       .  A
C993        C998   1.400       .  A
C994       C1101   1.403       .  A
C994        H999   1.068       .  S
C995       C1206   1.403       .  A
C995        C996   1.400       .  A
C996       C1209   1.402       .  A
C996       H1000   1.083       .  S
C997       C1102   1.402       .  A
C997        C998   1.404       .  A
C998       H1001   1.084       .  S
C1002      C1003   1.393       .  A
C1002      C1007   1.398       .  A
C1004      C1053   1.479       .  S
C1004      C1005   1.400       .  A
C1005      H1009   1.083       .  S
C1006      C1007   1.410       .  A
C1007      H1010   1.084       .  S
C1011      C1058   1.471       .  S
C1011      C1012   1.398       .  A
C1011      C1016   1.399       .  A
C1012      C1013   1.404   1_655  A
C1012      H1017   1.084       .  S
C1014      C1015   1.400       .  A
C1014      H1018   1.083       .  S
C1016      H1019   1.069       .  S
C1020      C1233   1.400   1_554  A
C1020      C1025   1.402       .  A
C1021      C1126   1.400       .  A
C1021      H1026   1.070       .  S
C1022      C1056   1.481       .  S
C1022      C1023   1.399       .  A
C1023      H1027   1.083       .  S
C1024      C1131   1.406   1_545  A
C1025      C1236   1.406   1_564  A
C1025      H1028   1.084       .  S
C1029      C1030   1.390       .  A
C1029      C1034   1.400       .  A
C1030      C1137   1.401       .  A
C1030      H1035   1.062       .  S
C1031      C1039   1.483       .  S
C1031      C1242   1.401       .  A
C1031      C1032   1.403       .  A
C1032      C1245   1.414   1_554  A
C1032      H1036   1.083       .  S
C1033      C1138   1.414       .  A
C1033      C1034   1.412       .  A
C1034      H1037   1.084       .  S
O1038      C1054   1.280       .  A
O1038     Zn1044   2.056       .  S
C1039      O1055   1.281       .  A
C1039      O1052   1.275       .  A
O1040      C1053   1.274       .  A
O1040     Cd1047   2.082       .  S
O1041      C1059   1.279       .  A
O1041     Cd1050   2.097       .  S
O1042      C1056   1.275       .  A
O1042     Cd1046   2.089       .  S
O1043      C1054   1.271       .  A
O1043     Cd1046   2.057       .  S
Zn1044     O1055   2.067       .  S
Zn1044     O1057   2.061       .  S
Zn1044     O1049   1.945       .  S
O1045      C1056   1.276       .  A
O1045     Cd1050   2.062       .  S
Cd1046     O1048   2.058       .  S
Cd1046     O1049   2.010       .  S
Cd1047     O1051   2.078       .  S
Cd1047     O1060   2.050       .  S
Cd1047     O1049   2.010       .  S
O1048      C1058   1.273       .  A
O1049     Cd1050   2.008       .  S
Cd1050     O1052   2.086       .  S
O1051      C1058   1.276       .  A
C1053      O1057   1.281       .  A
C1059      O1060   1.272       .  A
O1061      C1077   1.277       .  A
O1061     Zn1067   2.036       .  S
C1062      O1078   1.278       .  A
C1062      O1075   1.271       .  A
C1062      C1135   1.473       .  S
O1063      C1076   1.275       .  A
O1063     Cd1070   2.085       .  S
O1064      C1082   1.278       .  A
O1064     Cd1073   2.099       .  S
O1065      C1079   1.277       .  A
O1065     Cd1069   2.093       .  S
O1066      C1077   1.272       .  A
O1066     Cd1069   2.062       .  S
Zn1067     O1078   2.046       .  S
Zn1067     O1080   2.048       .  S
Zn1067     O1072   1.943       .  S
O1068      C1079   1.276       .  A
O1068     Cd1073   2.064       .  S
Cd1069     O1071   2.061       .  S
Cd1069     O1072   2.006       .  S
Cd1070     O1074   2.095       .  S
Cd1070     O1083   2.060       .  S
Cd1070     O1072   2.006       .  S
O1071      C1081   1.274       .  A
O1072     Cd1073   2.005       .  S
Cd1073     O1075   2.059       .  S
O1074      C1081   1.279       .  A
C1076      O1080   1.279       .  A
C1076      C1092   1.476       .  S
C1077      C1108   1.470       .  S
C1079      C1121   1.482       .  S
C1081      C1126   1.478       .  S
C1082      O1083   1.276       .  A
C1082      C1101   1.484       .  S
C1084      C1089   1.423       .  A
C1085      C1086   1.418   1_545  A
C1086      C1103   1.491       .  S
C1086      C1087   1.421   1_655  A
C1088      C1089   1.420       .  A
C1089      C1139   1.504       .  S
C1090      C1160   1.474       .  S
C1090      C1095   1.402       .  A
C1091      C1196   1.393       .  A
C1091      H1096   1.066       .  S
C1092      C1093   1.400       .  A
C1093      H1097   1.083       .  S
C1094      C1201   1.413       .  A
C1095      H1098   1.084       .  S
C1099      C1165   1.474       .  S
C1099      C1100   1.399       .  A
C1099      C1104   1.400       .  A
C1100      C1207   1.403       .  A
C1100      H1105   1.068       .  S
C1101      C1102   1.400       .  A
C1102      H1106   1.083       .  S
C1103      C1208   1.402       .  A
C1103      C1104   1.404       .  A
C1104      H1107   1.084       .  S
C1108      C1109   1.393       .  A
C1108      C1113   1.398       .  A
C1110      C1159   1.479       .  S
C1110      C1111   1.400       .  A
C1111      H1115   1.083       .  S
C1112      C1113   1.410       .  A
C1113      H1116   1.084       .  S
C1117      C1164   1.471       .  S
C1117      C1118   1.398       .  A
C1117      C1122   1.399       .  A
C1118      C1119   1.404   1_655  A
C1118      H1123   1.084       .  S
C1120      C1121   1.400       .  A
C1120      H1124   1.083       .  S
C1122      H1125   1.069       .  S
C1126      C1131   1.402       .  A
C1127      C1232   1.400       .  A
C1127      H1132   1.070       .  S
C1128      C1162   1.481       .  S
C1128      C1129   1.399       .  A
C1129      H1133   1.083       .  S
C1130      C1237   1.406   1_545  A
C1131      H1134   1.084       .  S
C1135      C1136   1.390       .  A
C1135      C1140   1.400       .  A
C1136      C1243   1.401       .  A
C1136      H1141   1.062       .  S
C1137      C1145   1.483       .  S
C1137      C1138   1.403       .  A
C1138      H1142   1.083       .  S
C1139      C1244   1.414       .  A
C1139      C1140   1.412       .  A
C1140      H1143   1.084       .  S
O1144      C1160   1.280       .  A
O1144     Zn1150   2.056       .  S
C1145      O1161   1.281       .  A
C1145      O1158   1.275       .  A
O1146      C1159   1.274       .  A
O1146     Cd1153   2.082       .  S
O1147      C1165   1.279       .  A
O1147     Cd1156   2.097       .  S
O1148      C1162   1.275       .  A
O1148     Cd1152   2.089       .  S
O1149      C1160   1.271       .  A
O1149     Cd1152   2.057       .  S
Zn1150     O1161   2.067       .  S
Zn1150     O1163   2.061       .  S
Zn1150     O1155   1.945       .  S
O1151      C1162   1.276       .  A
O1151     Cd1156   2.062       .  S
Cd1152     O1154   2.058       .  S
Cd1152     O1155   2.010       .  S
Cd1153     O1157   2.078       .  S
Cd1153     O1166   2.050       .  S
Cd1153     O1155   2.010       .  S
O1154      C1164   1.273       .  A
O1155     Cd1156   2.007       .  S
Cd1156     O1158   2.086       .  S
O1157      C1164   1.276       .  A
C1159      O1163   1.281       .  A
C1165      O1166   1.272       .  A
O1167      C1183   1.277       .  A
O1167     Zn1173   2.037       .  S
C1168      O1184   1.278       .  A
C1168      O1181   1.271       .  A
C1168      C1241   1.473       .  S
O1169      C1182   1.275       .  A
O1169     Cd1176   2.085       .  S
O1170      C1188   1.278       .  A
O1170     Cd1179   2.099       .  S
O1171      C1185   1.277       .  A
O1171     Cd1175   2.093       .  S
O1172      C1183   1.272       .  A
O1172     Cd1175   2.062       .  S
Zn1173     O1184   2.046       .  S
Zn1173     O1186   2.048       .  S
Zn1173     O1178   1.943       .  S
O1174      C1185   1.276       .  A
O1174     Cd1179   2.064       .  S
Cd1175     O1177   2.061       .  S
Cd1175     O1178   2.006       .  S
Cd1176     O1180   2.095       .  S
Cd1176     O1189   2.060       .  S
Cd1176     O1178   2.006       .  S
O1177      C1187   1.274       .  A
O1178     Cd1179   2.005       .  S
Cd1179     O1181   2.059       .  S
O1180      C1187   1.279       .  A
C1182      O1186   1.279       .  A
C1182      C1198   1.476       .  S
C1183      C1214   1.470       .  S
C1185      C1227   1.482       .  S
C1187      C1232   1.478       .  S
C1188      O1189   1.276       .  A
C1188      C1207   1.484       .  S
C1190      C1195   1.423       .  A
C1191      C1192   1.418   1_545  A
C1192      C1209   1.491   1_556  S
C1192      C1193   1.421   1_655  A
C1194      C1195   1.420       .  A
C1195      C1245   1.504       .  S
C1196      C1266   1.474       .  S
C1196      C1201   1.402       .  A
C1197      H1202   1.066       .  S
C1198      C1199   1.400       .  A
C1199      H1203   1.083       .  S
C1201      H1204   1.084       .  S
C1205      C1271   1.474       .  S
C1205      C1206   1.399   1_556  A
C1205      C1210   1.400       .  A
C1206      H1211   1.068       .  S
C1207      C1208   1.400       .  A
C1208      H1212   1.083       .  S
C1209      C1210   1.404   1_554  A
C1210      H1213   1.084       .  S
C1214      C1215   1.393   1_556  A
C1214      C1219   1.398       .  A
C1216      C1265   1.479       .  S
C1216      C1217   1.400       .  A
C1217      H1221   1.083       .  S
C1218      C1219   1.410       .  A
C1219      H1222   1.084       .  S
C1223      C1270   1.471       .  S
C1223      C1224   1.398       .  A
C1223      C1228   1.399   1_556  A
C1224      C1225   1.404   1_656  A
C1224      H1229   1.084       .  S
C1226      C1227   1.400       .  A
C1226      H1230   1.083       .  S
C1228      H1231   1.069       .  S
C1232      C1237   1.402       .  A
C1233      H1238   1.070       .  S
C1234      C1268   1.481       .  S
C1234      C1235   1.399       .  A
C1235      H1239   1.083       .  S
C1237      H1240   1.084       .  S
C1241      C1242   1.390   1_556  A
C1241      C1246   1.400       .  A
C1242      H1247   1.062       .  S
C1243      C1251   1.483       .  S
C1243      C1244   1.403       .  A
C1244      H1248   1.083       .  S
C1245      C1246   1.412       .  A
C1246      H1249   1.084       .  S
O1250      C1266   1.280       .  A
O1250     Zn1256   2.056       .  S
C1251      O1267   1.281       .  A
C1251      O1264   1.275       .  A
O1252      C1265   1.274       .  A
O1252     Cd1259   2.082       .  S
O1253      C1271   1.279       .  A
O1253     Cd1262   2.097       .  S
O1254      C1268   1.275       .  A
O1254     Cd1258   2.089       .  S
O1255      C1266   1.271       .  A
O1255     Cd1258   2.057       .  S
Zn1256     O1267   2.067       .  S
Zn1256     O1269   2.061       .  S
Zn1256     O1261   1.945       .  S
O1257      C1268   1.276       .  A
O1257     Cd1262   2.062       .  S
Cd1258     O1260   2.058       .  S
Cd1258     O1261   2.010       .  S
Cd1259     O1263   2.078       .  S
Cd1259     O1272   2.050       .  S
Cd1259     O1261   2.010       .  S
O1260      C1270   1.273       .  A
O1261     Cd1262   2.007       .  S
Cd1262     O1264   2.086       .  S
O1263      C1270   1.276       .  A
C1265      O1269   1.281       .  A
C1271      O1272   1.272       .  A
