geometry optimzed in LAMMPS
_audit_creation_date              2020-11-30 
_audit_creation_method            'lammps2cif' 
_symmetry_space_group_name_H-M    'P1' 
_symmetry_Int_Tables_number       1 
_symmetry_cell_setting            triclinic 
loop_ 
_symmetry_equiv_pos_as_xyz 
  x,y,z 
_cell_length_a                    40.43568232 
_cell_length_b                    40.37553697363274 
_cell_length_c                    23.99665419424506 
_cell_angle_alpha                 90.21162255386973 
_cell_angle_beta                  89.81318752246514 
_cell_angle_gamma                 120.22474451825389 
loop_ 
_atom_site_label 
_atom_site_type_symbol 
_atom_site_fract_x 
_atom_site_fract_y 
_atom_site_fract_z 
_atom_site_charge 
O1          O  0.33258785  0.99735350  0.94851436    -0.77000
C2          C  0.34070127  0.07026944  0.08090110     0.84000
O3          O  0.23218666  0.41575620  0.06677436    -0.78100
O4          O  0.21839915  0.02867958  0.07278910    -0.79600
O5          O  0.25306926  0.04735412  0.88024852    -0.79400
O6          O  0.30418489  0.00015210  0.87074933    -0.78000
Zn7        Zn  0.30417794  0.99820475  0.01114142     1.55700
O8          O  0.25257873  0.07660352  0.95923516    -0.79400
Cd9        Cd  0.25741737  0.50064889  0.90589170     1.59700
Cd10       Cd  0.21539415  0.44895716  0.01713686     1.59600
O11         O  0.20645244  0.45548439  0.87579812    -0.79400
O12         O  0.25975203  0.99871963  0.98923660    -1.89900
Cd13       Cd  0.26466377  0.04708506  0.02198175     1.59900
O14         O  0.17639074  0.42072074  0.95097402    -0.79400
O15         O  0.31466774  0.07901098  0.07321562    -0.78000
C16         C  0.26679539  0.42482620  0.07707096     0.84500
C17         C  0.33083810  0.99831379  0.89625006     0.84200
O18         O  0.33884097  0.04146017  0.05700727    -0.77000
C19         C  0.24768219  0.07183903  0.90632940     0.85000
O20         O  0.29450804  0.45460801  0.05640069    -0.77100
C21         C  0.17690189  0.42814767  0.89889436     0.85100
C22         C  0.18919879  0.49644775  0.08444728     0.85400
O23         O  0.18532067  0.46466416  0.06808390    -0.79500
O24         O  0.33126349  0.32390768  0.03496164    -0.77000
C25         C  0.33227328  0.25596960  0.90685630     0.84000
O26         O  0.22731284  0.30658607  0.91927946    -0.78100
O27         O  0.21069582  0.17465980  0.92670521    -0.79600
O28         O  0.24415225  0.20027675  0.11284852    -0.79400
O29         O  0.30180949  0.29812645  0.11516971    -0.78000
Zn30       Zn  0.29919991  0.29576385  0.97347706     1.55700
O31         O  0.24784175  0.16877353  0.03875524    -0.79400
Cd32       Cd  0.25225883  0.25184168  0.08276617     1.59700
Cd33       Cd  0.20946300  0.25555425  0.96916750     1.59600
O34         O  0.20271533  0.24920817  0.11236227    -0.79400
O35         O  0.25412447  0.25220239  0.99919765    -1.89900
Cd36       Cd  0.25810602  0.20695515  0.97273347     1.59900
O37         O  0.16901298  0.24202825  0.03514480    -0.79400
O38         O  0.30689446  0.22206686  0.92158513    -0.78000
C39         C  0.26209286  0.33303696  0.91020047     0.84500
C40         C  0.33028569  0.32347505  0.08751491     0.84200
O41         O  0.33124374  0.28498846  0.92426485    -0.77000
C42         C  0.24083638  0.17005392  0.09053394     0.85000
O43         O  0.28968709  0.33103383  0.93108095    -0.77100
C44         C  0.17106091  0.23968494  0.08828707     0.85100
C45         C  0.18219561  0.17756316  0.91169470     0.85400
O46         O  0.18023984  0.20771636  0.92025375    -0.79500
O47         O  0.16656365  0.50463218  0.45650210    -0.77000
C48         C  0.15949704  0.42716835  0.57636277     0.84000
O49         O  0.26765692  0.08527198  0.56585069    -0.78100
O50         O  0.27650104  0.47022425  0.56781616    -0.79600
O51         O  0.24788950  0.45900876  0.37099049    -0.79400
O52         O  0.19176605  0.50291296  0.37425039    -0.78000
Zn53       Zn  0.19592985  0.50221638  0.51551853     1.55700
O54         O  0.25050685  0.42926168  0.44776935    -0.79400
Cd55       Cd  0.24074512  0.00327969  0.40266437     1.59700
Cd56       Cd  0.28227190  0.05130612  0.51469373     1.59600
O57         O  0.29198240  0.04946547  0.37413064    -0.79400
O58         O  0.23864195  0.00216688  0.48606010    -1.89900
Cd59       Cd  0.23366332  0.45286598  0.51286861     1.59900
O60         O  0.32386409  0.07738485  0.45221021    -0.79400
O61         O  0.18355708  0.41700611  0.56171957    -0.78000
C62         C  0.23400301  0.07362156  0.58482592     0.84500
C63         C  0.16600054  0.50395979  0.40403202     0.84200
O64         O  0.16264616  0.45795276  0.55874025    -0.77000
C65         C  0.25581715  0.43576929  0.39526247     0.85000
O66         O  0.20589449  0.04271645  0.56789106    -0.77100
C67         C  0.32303035  0.07236063  0.39941645     0.85100
C68         C  0.30338804  0.00241590  0.58458744     0.85400
O69         O  0.30776088  0.03416642  0.56838349    -0.79500
O70         O  0.50368220  0.16721796  0.04651743    -0.77000
C71         C  0.42605305  0.15921089  0.92304861     0.84000
O72         O  0.08559045  0.26923540  0.94221717    -0.78100
O73         O  0.47047722  0.27810100  0.93161654    -0.79600
O74         O  0.45263154  0.24494142  0.12740260    -0.79400
O75         O  0.50062859  0.19193089  0.12842627    -0.78000
Zn76       Zn  0.50029214  0.19574313  0.98690564     1.55700
O77         O  0.42614819  0.25039637  0.04893168    -0.79400
Cd78       Cd  0.49892621  0.23985988  0.09908414     1.59700
Cd79       Cd  0.04972540  0.28341093  0.98906219     1.59600
O80         O  0.04387316  0.29140110  0.13002912    -0.79400
O81         O  0.50004408  0.23880364  0.01554521    -1.89900
Cd82       Cd  0.45171626  0.23430863  0.98573474     1.59900
O83         O  0.07548855  0.32311746  0.05375042    -0.79400
O84         O  0.41694139  0.18432912  0.93627409    -0.78000
C85         C  0.07501437  0.23547755  0.92460198     0.84500
C86         C  0.50332827  0.16691075  0.09896961     0.84200
O87         O  0.45610563  0.16125958  0.94213233    -0.77000
C88         C  0.43079464  0.25426835  0.10187052     0.85000
O89         O  0.04328027  0.20727601  0.93894297    -0.77100
C90         C  0.06896114  0.32211387  0.10611416     0.85100
C91         C  0.00265642  0.30617584  0.91719811     0.85400
O92         O  0.03435037  0.31105260  0.93487877    -0.79500
O93         O  0.45300912  0.17580133  0.58088780    -0.77000
C94         C  0.49929359  0.18414592  0.42005322     0.84000
O95         O  0.07985029  0.28209233  0.59578336    -0.78100
O96         O  0.05131930  0.30625333  0.40159602    -0.79600
O97         O  0.42507070  0.26446508  0.47048633    -0.79400
O98         O  0.41628096  0.20193335  0.58798506    -0.78000
Zn99       Zn  0.49832477  0.21023204  0.53698961     1.55700
O100        O  0.46243491  0.26875533  0.39910763    -0.79400
Cd101      Cd  0.45079301  0.25205644  0.53823800     1.59700
Cd102      Cd  0.04853332  0.30080757  0.54385319     1.59600
O103        O  0.46633398  0.29939152  0.58533555    -0.79400
O104        O  0.50032950  0.25597362  0.51384566    -1.89900
Cd105      Cd  0.50345185  0.25927122  0.43102233     1.59900
O106        O  0.02994846  0.33052057  0.59065393    -0.79400
O107        O  0.49984013  0.21204397  0.39528667    -0.78000
C108        C  0.07026398  0.24719059  0.60665780     0.84500
C109        C  0.42348469  0.17519826  0.59971502     0.84200
O110        O  0.49941514  0.18149001  0.47258150    -0.77000
C111        C  0.43531784  0.27224954  0.41932852     0.85000
O112        O  0.04057830  0.21948683  0.58550808    -0.77100
C113        C  0.99789913  0.32836390  0.59966971     0.85100
C114        C  0.07352204  0.33822458  0.42463799     0.85400
O115        O  0.07720813  0.34134529  0.47788888    -0.79500
N116        N  0.49753184  0.15384162  0.38880177    -0.02000
C117        C  0.02781949  0.14892954  0.38156501     0.00600
C118        C  0.01418642  0.11079284  0.36829412    -0.22300
C119        C  0.47451002  0.09251451  0.36947722    -0.22500
C120        C  0.46488335  0.11996604  0.38323286     0.00500
H121        H  0.03093480  0.09860490  0.35285220     0.14300
H122        H  0.45512227  0.06373812  0.35477899     0.14300
C123        C  0.27476722  0.41829911  0.36254080     0.04600
C124        C  0.27065281  0.41333962  0.30359559    -0.11500
C125        C  0.28898123  0.39637882  0.27428726     0.02100
C126        C  0.30817560  0.38216899  0.30609064    -0.10100
C127        C  0.32007728  0.39510214  0.35991019     0.04600
C128        C  0.30216295  0.41178076  0.38939861    -0.09500
H129        H  0.25420309  0.42335087  0.28118451     0.10200
H130        H  0.31821434  0.36443157  0.28722884     0.07700
H131        H  0.30988672  0.42010855  0.43251006     0.07600
C132        C  0.35957586  0.09123762  0.36702625     0.04600
C133        C  0.35935268  0.09321478  0.30788363    -0.11500
C134        C  0.39405211  0.10954620  0.27764743     0.02100
C135        C  0.42839257  0.12698891  0.30806555    -0.10100
C136        C  0.42890251  0.11758278  0.36351160     0.04600
C137        C  0.39456308  0.10103981  0.39401351    -0.09500
H138        H  0.33240244  0.08046970  0.28577258     0.10200
H139        H  0.45563757  0.14304707  0.28676588     0.07700
H140        H  0.39486343  0.09446961  0.43768734     0.07600
N141        N  0.35201295  0.35842267  0.38110459    -0.02000
C142        C  0.35303871  0.39221002  0.38063057     0.00600
C143        C  0.39087493  0.42134788  0.37727970    -0.22300
C144        C  0.41310043  0.40396404  0.37850645    -0.22500
C145        C  0.38797827  0.36489916  0.38286027     0.00500
H146        H  0.40102712  0.45130108  0.36915155     0.14300
H147        H  0.44368222  0.41795451  0.37176739     0.14300
C148        C  0.41809430  0.28879458  0.38205660     0.04600
C149        C  0.41786976  0.28320857  0.32349814    -0.11500
C150        C  0.40495039  0.30145570  0.28675684     0.02100
C151        C  0.39055302  0.32358714  0.31060246    -0.10100
C152        C  0.39662485  0.33464982  0.36618966     0.04600
C153        C  0.40896319  0.31607677  0.40289940    -0.09500
H154        H  0.42871573  0.26555403  0.30698297     0.10200
H155        H  0.37571028  0.33426495  0.28563921     0.07700
H156        H  0.41235679  0.32346275  0.44678148     0.07600
C157        C  0.09032541  0.37241594  0.38718387     0.04600
C158        C  0.09555610  0.36777717  0.32953162    -0.11500
C159        C  0.09949096  0.39542509  0.29008553     0.02100
C160        C  0.09603885  0.42651235  0.30914979    -0.10100
C161        C  0.09403961  0.43339370  0.36541224     0.04600
C162        C  0.09176229  0.40662782  0.40497009    -0.09500
H163        H  0.09522902  0.34211003  0.31548183     0.10200
H164        H  0.09555365  0.44668781  0.28004067     0.07700
H165        H  0.08857544  0.41122874  0.44868992     0.07600
N166        N  0.13396114  0.50316257  0.37961289    -0.02000
C167        C  0.12983374  0.03420174  0.37718995     0.00600
C168        C  0.09139438  0.02199205  0.36974681    -0.22300
C169        C  0.07185238  0.48215129  0.37137857    -0.22500
C170        C  0.09903935  0.47142309  0.37971170     0.00500
H171        H  0.07931034  0.03973255  0.35919615     0.14300
H172        H  0.04180852  0.46327466  0.36248632     0.14300
C173        C  0.13472643  0.22321430  0.37175643     0.04600
C174        C  0.13803632  0.22612089  0.31295238    -0.11500
C175        C  0.10536420  0.20762379  0.27906791     0.02100
C176        C  0.06925869  0.18867842  0.30537493    -0.10100
C177        C  0.06564394  0.18044432  0.36208723     0.04600
C178        C  0.09834261  0.19885481  0.39597584    -0.09500
H179        H  0.16609153  0.24102218  0.29383266     0.10200
H180        H  0.04323152  0.17659336  0.28096019     0.07700
H181        H  0.09578975  0.19277828  0.44022905     0.07600
C182        C  0.21968683  0.13400621  0.37343468     0.04600
C183        C  0.22765214  0.13570243  0.31544059    -0.11500
C184        C  0.20279968  0.10575722  0.27932806     0.02100
C185        C  0.16886379  0.07565887  0.30183906    -0.10100
C186        C  0.16185356  0.07172617  0.35871036     0.04600
C187        C  0.18757698  0.10063077  0.39508100    -0.09500
H188        H  0.25263265  0.16062240  0.29864623     0.10200
H189        H  0.14732869  0.05382607  0.27510456     0.07700
H190        H  0.18138536  0.09813633  0.43933023     0.07600
C191        C  0.27794903  0.40323989  0.11490536     0.04600
C192        C  0.27007027  0.40148969  0.17284343    -0.11500
C193        C  0.29385450  0.39700506  0.21170813     0.02100
C194        C  0.32610578  0.39602855  0.19060268    -0.10100
C195        C  0.33223144  0.39434215  0.13408739     0.04600
C196        C  0.30775886  0.39726975  0.09607770    -0.09500
H197        H  0.24756784  0.40646605  0.18730649     0.10200
H198        H  0.34798645  0.39736412  0.21785980     0.07700
H199        H  0.31412566  0.39859588  0.05193382     0.07600
C200        C  0.37360592  0.09075909  0.11956813     0.04600
C201        C  0.36842317  0.09725298  0.17629373    -0.11500
C202        C  0.39656027  0.10290469  0.21638282     0.02100
C203        C  0.42810069  0.09959733  0.19856009    -0.10100
C204        C  0.43501374  0.09636142  0.14291634     0.04600
C205        C  0.40833176  0.09294534  0.10318814    -0.09500
H206        H  0.34200332  0.09566020  0.18927718     0.10200
H207        H  0.44838961  0.09974100  0.22801719     0.07700
H208        H  0.41328076  0.08910510  0.05981230     0.07600
N209        N  0.36172977  0.35444622  0.11453653    -0.02000
C210        C  0.36472485  0.38923405  0.11710051     0.00600
C211        C  0.40283646  0.41720680  0.12077608    -0.22300
C212        C  0.42356634  0.39846406  0.11773639    -0.22500
C213        C  0.39745150  0.35952352  0.11278419     0.00500
H214        H  0.41414459  0.44731783  0.12952894     0.14300
H215        H  0.45394322  0.41135409  0.12539570     0.14300
C216        C  0.41491531  0.27513598  0.13388755     0.04600
C217        C  0.41320073  0.27374635  0.19319221    -0.11500
C218        C  0.40842548  0.30107778  0.22405211     0.02100
C219        C  0.40823772  0.33080121  0.19417281    -0.10100
C220        C  0.40525880  0.33030765  0.13669997     0.04600
C221        C  0.40830771  0.30225393  0.10599398    -0.09500
H222        H  0.41661585  0.25216913  0.21467404     0.10200
H223        H  0.41002017  0.35532488  0.21529801     0.07700
H224        H  0.40824269  0.30330859  0.06089759     0.07600
C225        C  0.08876873  0.35847475  0.13901426     0.04600
C226        C  0.10150000  0.39380578  0.11130506    -0.11500
C227        C  0.11793422  0.42825629  0.14142994     0.02100
C228        C  0.12381872  0.42760635  0.19836326    -0.10100
C229        C  0.10568197  0.39308678  0.22857136     0.04600
C230        C  0.08929211  0.35825988  0.19825912    -0.09500
H231        H  0.09699196  0.39439563  0.06690681     0.10200
H232        H  0.13891123  0.45487765  0.21992433     0.07700
H233        H  0.07542413  0.33124629  0.22030574     0.07600
N234        N  0.15737708  0.49623633  0.11041803    -0.02000
C235        C  0.15329946  0.02742594  0.11482373     0.00600
C236        C  0.11529422  0.01532002  0.12613551    -0.22300
C237        C  0.09607386  0.47572260  0.12837259    -0.22500
C238        C  0.12276444  0.46452851  0.11835965     0.00500
H239        H  0.10380832  0.03328665  0.13880941     0.14300
H240        H  0.06704982  0.45757019  0.14301203     0.14300
C241        C  0.13549433  0.22029083  0.12330458     0.04600
C242        C  0.13727000  0.22751897  0.18169042    -0.11500
C243        C  0.10735006  0.20197654  0.21744934     0.02100
C244        C  0.07787780  0.16808773  0.19435450    -0.10100
C245        C  0.07313421  0.16239764  0.13744204     0.04600
C246        C  0.10170842  0.18873772  0.10119604    -0.09500
H247        H  0.16215185  0.25229549  0.19893299     0.10200
H248        H  0.05670843  0.14571663  0.22077482     0.07700
H249        H  0.09872865  0.18332394  0.05675351     0.07600
C250        C  0.22541081  0.13482721  0.12538296     0.04600
C251        C  0.20215134  0.09826642  0.10083794    -0.11500
C252        C  0.18457099  0.06530201  0.13436768     0.02100
C253        C  0.19225149  0.06876608  0.19118388    -0.10100
C254        C  0.20958781  0.10467451  0.21788137     0.04600
C255        C  0.22751012  0.13778870  0.18436752    -0.09500
H256        H  0.19624563  0.09566830  0.05653578     0.10200
H257        H  0.18052179  0.04263412  0.21540582     0.07700
H258        H  0.24128177  0.16579857  0.20386590     0.07600
N259        N  0.50426605  0.13571235  0.12364201    -0.02000
C260        C  0.03498512  0.13102527  0.12013156     0.00600
C261        C  0.02274289  0.09248160  0.12794161    -0.22300
C262        C  0.48312949  0.07338670  0.13287508    -0.22500
C263        C  0.47265707  0.10096707  0.12805928     0.00500
H264        H  0.04075579  0.08018336  0.13486917     0.14300
H265        H  0.46455735  0.04341422  0.14271214     0.14300
O266        O  0.32350530  0.32786916  0.46064908    -0.77000
C267        C  0.25713482  0.33332721  0.58730881     0.84000
O268        O  0.30810851  0.22673449  0.57458785    -0.78100
O269        O  0.18011691  0.21519622  0.57150943    -0.79600
O270        O  0.19989638  0.24221592  0.38384907    -0.79400
O271        O  0.29644797  0.29877706  0.38048875    -0.78000
Zn272      Zn  0.29579789  0.29844500  0.52275962     1.55700
O273        O  0.16894910  0.24680432  0.45775749    -0.79400
Cd274      Cd  0.25121408  0.25030512  0.41331093     1.59700
Cd275      Cd  0.25732399  0.20963244  0.52546573     1.59600
O276        O  0.24895964  0.20115277  0.38389432    -0.79400
O277        O  0.25304227  0.25383531  0.49615494    -1.89900
Cd278      Cd  0.20901163  0.25963775  0.52135871     1.59900
O279        O  0.24166296  0.16771928  0.46132465    -0.79400
O280        O  0.22353306  0.30845835  0.57119314    -0.78000
C281        C  0.33313623  0.26164585  0.58572620     0.84500
C282        C  0.32236066  0.32663081  0.40818070     0.84200
O283        O  0.28614994  0.33201750  0.57090657    -0.77000
C284        C  0.16988456  0.23909072  0.40628422     0.85000
O285        O  0.33000527  0.28891415  0.56624723    -0.77100
C286        C  0.23917316  0.16954554  0.40823300     0.85100
C287        C  0.18355188  0.18752909  0.58893450     0.85400
O288        O  0.21207344  0.18354046  0.57747228    -0.79500
C289        C  0.26431999  0.36525763  0.62476284     0.04600
C290        C  0.28998373  0.40291114  0.60638258    -0.11500
C291        C  0.30072385  0.43390434  0.64251887     0.02100
C292        C  0.28277815  0.42724599  0.69406842    -0.10100
C293        C  0.26808872  0.39088274  0.71849408     0.04600
C294        C  0.25579537  0.35905251  0.68250380    -0.09500
H295        H  0.30269633  0.40784324  0.56521069     0.10200
H296        H  0.28987986  0.45185560  0.72041967     0.07700
H297        H  0.24383702  0.33045740  0.69954945     0.07600
C298        C  0.36683408  0.27400290  0.62250212     0.04600
C299        C  0.36335732  0.26087888  0.67826421    -0.11500
C300        C  0.39257955  0.28296460  0.71739811     0.02100
C301        C  0.42313726  0.31879459  0.70025236    -0.10100
C302        C  0.42853246  0.33036899  0.64528369     0.04600
C303        C  0.40067455  0.30781307  0.60616125    -0.09500
H304        H  0.33763008  0.23522504  0.69151431     0.10200
H305        H  0.44426107  0.33827155  0.72977752     0.07700
H306        H  0.40430998  0.31774923  0.56344675     0.07600
N307        N  0.33214499  0.00315226  0.61868515    -0.02000
C308        C  0.33469319  0.47228421  0.63268616     0.00600
C309        C  0.36988454  0.48464496  0.65744584    -0.22300
C310        C  0.38891298  0.02436385  0.65781142    -0.22500
C311        C  0.36469944  0.03510846  0.63356177     0.00500
H312        H  0.37909183  0.46693956  0.67824057     0.14300
H313        H  0.41556771  0.04301931  0.67897459     0.14300
C314        C  0.39805204  0.14160471  0.63471776     0.04600
C315        C  0.39589600  0.14504688  0.69349465    -0.11500
C316        C  0.37651284  0.11148520  0.72645525     0.02100
C317        C  0.35481462  0.07636822  0.69858637    -0.10100
C318        C  0.36662527  0.07217349  0.64599808     0.04600
C319        C  0.38645933  0.10477082  0.61254128    -0.09500
H320        H  0.41260186  0.17279204  0.71329097     0.10200
H321        H  0.33734935  0.05057809  0.72268597     0.07700
H322        H  0.39470449  0.10174192  0.57063876     0.07600
C323        C  0.09380891  0.23592498  0.64047196     0.04600
C324        C  0.10098490  0.20814424  0.61619114    -0.11500
C325        C  0.11940794  0.19285055  0.64666304     0.02100
C326        C  0.13407405  0.20810351  0.69853360    -0.10100
C327        C  0.11737380  0.22538520  0.72957882     0.04600
C328        C  0.09917455  0.24212170  0.69916932    -0.09500
H329        H  0.09107843  0.19746881  0.57444340     0.10200
H330        H  0.15265702  0.19952911  0.71823410     0.07700
H331        H  0.08656082  0.25665120  0.72076270     0.07600
N332        N  0.15202265  0.15771020  0.61766801    -0.02000
C333        C  0.11948546  0.15749397  0.63052475     0.00600
C334        C  0.09376000  0.12206861  0.65280599    -0.22300
C335        C  0.11183857  0.10064997  0.65326907    -0.22500
C336        C  0.14797097  0.12358220  0.63100371     0.00500
H337        H  0.06709848  0.11453640  0.67358399     0.14300
H338        H  0.10157731  0.07343358  0.67400008     0.14300
C339        C  0.22456222  0.09553284  0.62462154     0.04600
C340        C  0.23220939  0.09659790  0.68273460    -0.11500
C341        C  0.21589422  0.11156931  0.72061137     0.02100
C342        C  0.19596297  0.12848677  0.69762817    -0.10100
C343        C  0.18096896  0.11890370  0.64442057     0.04600
C344        C  0.19657180  0.10418001  0.60686590    -0.09500
H345        H  0.24793586  0.08335297  0.69804922     0.10200
H346        H  0.18739684  0.14511398  0.72306723     0.07700
H347        H  0.18598420  0.09817831  0.56440161     0.07600
C348        C  0.12738541  0.40611980  0.61582909     0.04600
C349        C  0.09297498  0.40532524  0.60224945    -0.11500
C350        C  0.06682247  0.40117050  0.64360483     0.02100
C351        C  0.07463709  0.39713144  0.69843529    -0.10100
C352        C  0.10642148  0.39354088  0.71350265     0.04600
C353        C  0.13364777  0.39917225  0.67173514    -0.09500
H354        H  0.08750552  0.41005497  0.55964225     0.10200
H355        H  0.05459572  0.39588011  0.72959746     0.07700
H356        H  0.16010734  0.40030894  0.68295417     0.07600
N357        N  0.99754082  0.36142480  0.62091343    -0.02000
C358        C  0.46595206  0.36414289  0.63041181     0.00600
C359        C  0.47721243  0.40106211  0.64789460    -0.22300
C360        C  0.01686747  0.42128397  0.64826066    -0.22500
C361        C  0.02869134  0.39615157  0.63095474     0.00500
H362        H  0.45883223  0.41097217  0.66464281     0.14300
H363        H  0.03484229  0.44980138  0.66494087     0.14300
N364        N  0.00298211  0.33557656  0.88474861    -0.02000
C365        C  0.47154903  0.33712406  0.87045538     0.00600
C366        C  0.48290914  0.37316661  0.84956615    -0.22300
C367        C  0.02249434  0.39382088  0.85186487    -0.22500
C368        C  0.03437836  0.36980199  0.87379957     0.00500
H369        H  0.46486191  0.38202091  0.82896913     0.14900
H370        H  0.04060942  0.42137862  0.83252293     0.14300
C371        C  0.23030107  0.09105675  0.87439605     0.04600
C372        C  0.23630119  0.09676056  0.81576706    -0.11500
C373        C  0.21219039  0.10476096  0.78288494     0.02100
C374        C  0.18084508  0.10414796  0.80967922    -0.10100
C375        C  0.17646974  0.10258235  0.86699076     0.04600
C376        C  0.20142159  0.09618013  0.89998854    -0.09500
H377        H  0.25872633  0.09371867  0.79601362     0.10200
H378        H  0.15843452  0.10474750  0.78601951     0.07700
H379        H  0.19663825  0.09252541  0.94453953     0.07600
C380        C  0.14147134  0.40633633  0.86467138     0.04600
C381        C  0.14332610  0.40493727  0.80544892    -0.11500
C382        C  0.10931236  0.38544865  0.77384037     0.02100
C383        C  0.07463147  0.36446755  0.80276136    -0.10100
C384        C  0.07170734  0.37369980  0.85762898     0.04600
C385        C  0.10515261  0.39301770  0.88982756    -0.09500
H386        H  0.17063255  0.42057761  0.78429780     0.10200
H387        H  0.04832055  0.34711639  0.77976978     0.07700
H388        H  0.10306579  0.39942776  0.93314911     0.07600
C389        C  0.27375457  0.36662022  0.87288960     0.04600
C390        C  0.30760951  0.40132911  0.88751610    -0.11500
C391        C  0.32921838  0.42852107  0.84674364     0.02100
C392        C  0.31626982  0.42176917  0.79256329    -0.10100
C393        C  0.28009810  0.39094867  0.77759282     0.04600
C394        C  0.25918716  0.36224903  0.81784530    -0.09500
H395        H  0.31854430  0.40582965  0.92972418     0.10200
H396        H  0.33477750  0.44237072  0.76175686     0.07700
H397        H  0.23333922  0.33624084  0.80588750     0.07600
C398        C  0.36503541  0.26394058  0.87062183     0.04600
C399        C  0.40209844  0.28918326  0.89158070    -0.11500
C400        C  0.43408216  0.30277863  0.85670497     0.02100
C401        C  0.42907815  0.28844382  0.80278629    -0.10100
C402        C  0.39288862  0.27246368  0.77732754     0.04600
C403        C  0.36029775  0.25763498  0.81226491    -0.09500
H404        H  0.40577018  0.29982857  0.93398481     0.10200
H405        H  0.45444617  0.29754236  0.77735659     0.07700
H406        H  0.33199332  0.24522557  0.79422975     0.07600
N407        N  0.36083263  0.99798304  0.86664490    -0.02000
C408        C  0.36359728  0.46647014  0.85812054     0.00600
C409        C  0.39992299  0.47811821  0.83747714    -0.22300
C410        C  0.41978202  0.01800850  0.83664065    -0.22500
C411        C  0.39496663  0.02944415  0.85682739     0.00500
H412        H  0.40970397  0.45981175  0.81997117     0.14300
H413        H  0.44789226  0.03629937  0.81902276     0.14300
C414        C  0.40462769  0.12768682  0.88248917     0.04600
C415        C  0.39529092  0.13488579  0.82851115    -0.11500
C416        C  0.38819135  0.10849114  0.78481492     0.02100
C417        C  0.39327795  0.07697249  0.79573627    -0.10100
C418        C  0.39899657  0.06776687  0.84881755     0.04600
C419        C  0.40381049  0.09268543  0.89265330    -0.09500
H420        H  0.39551969  0.16132734  0.82008616     0.10200
H421        H  0.39116940  0.05772842  0.76269896     0.07700
H422        H  0.40965376  0.08619155  0.93402296     0.07600
C423        C  0.09818640  0.22593589  0.88767463     0.04600
C424        C  0.10435738  0.23758470  0.83111524    -0.11500
C425        C  0.11265273  0.21678121  0.79138916     0.02100
C426        C  0.11312856  0.18363183  0.81017311    -0.10100
C427        C  0.10953841  0.17344105  0.86600357     0.04600
C428        C  0.10242605  0.19486560  0.90478959    -0.09500
H429        H  0.10011695  0.26077008  0.81787126     0.10200
H430        H  0.11536972  0.16414284  0.78150253     0.07700
H431        H  0.09747057  0.18567376  0.94791687     0.07600
N432        N  0.14907083  0.14391944  0.89134663    -0.02000
C433        C  0.11450635  0.14065024  0.88232489     0.00600
C434        C  0.08780962  0.10263044  0.87262826    -0.22300
C435        C  0.10696366  0.08232247  0.87669326    -0.22500
C436        C  0.14506815  0.10845977  0.88828169     0.00500
H437        H  0.05865555  0.09139387  0.85869939     0.14300
H438        H  0.09543890  0.05264115  0.86482099     0.14300
O439        O  0.33258776  0.49735351  0.94851435    -0.77000
C440        C  0.34070135  0.57026943  0.08090109     0.84000
O441        O  0.23218665  0.91575618  0.06677434    -0.78100
O442        O  0.21839918  0.52867958  0.07278915    -0.79600
O443        O  0.25306914  0.54735408  0.88024844    -0.79400
O444        O  0.30418477  0.50015204  0.87074932    -0.78000
Zn445      Zn  0.30417788  0.49820478  0.01114142     1.55700
O446        O  0.25257878  0.57660351  0.95923515    -0.79400
Cd447      Cd  0.25741739  0.00064880  0.90589169     1.59700
Cd448      Cd  0.21539420  0.94895713  0.01713684     1.59600
O449        O  0.20645239  0.95548440  0.87579814    -0.79400
O450        O  0.25975198  0.49871965  0.98923660    -1.89900
Cd451      Cd  0.26466385  0.54708507  0.02198178     1.59900
O452        O  0.17639076  0.92072066  0.95097402    -0.79400
O453        O  0.31466788  0.57901104  0.07321553    -0.78000
C454        C  0.26679538  0.92482619  0.07707098     0.84500
C455        C  0.33083799  0.49831373  0.89625004     0.84200
O456        O  0.33884098  0.54146012  0.05700730    -0.77000
C457        C  0.24768213  0.57183900  0.90632940     0.85000
O458        O  0.29450803  0.95460801  0.05640077    -0.77100
C459        C  0.17690189  0.92814763  0.89889437     0.85100
C460        C  0.18919879  0.99644775  0.08444727     0.85400
O461        O  0.18532074  0.96466416  0.06808395    -0.79500
O462        O  0.33126345  0.82390773  0.03496153    -0.77000
C463        C  0.33227322  0.75596954  0.90685626     0.84000
O464        O  0.22731291  0.80658607  0.91927946    -0.78100
O465        O  0.21069578  0.67465970  0.92670527    -0.79600
O466        O  0.24415232  0.70027675  0.11284851    -0.79400
O467        O  0.30180952  0.79812648  0.11516964    -0.78000
Zn468      Zn  0.29919985  0.79576382  0.97347703     1.55700
O469        O  0.24784183  0.66877353  0.03875524    -0.79400
Cd470      Cd  0.25225882  0.75184168  0.08276619     1.59700
Cd471      Cd  0.20946305  0.75555421  0.96916751     1.59600
O472        O  0.20271539  0.74920832  0.11236233    -0.79400
O473        O  0.25412445  0.75220234  0.99919769    -1.89900
Cd474      Cd  0.25810593  0.70695508  0.97273347     1.59900
O475        O  0.16901299  0.74202815  0.03514482    -0.79400
O476        O  0.30689433  0.72206681  0.92158502    -0.78000
C477        C  0.26209291  0.83303698  0.91020048     0.84500
C478        C  0.33028567  0.82347509  0.08751481     0.84200
O479        O  0.33124373  0.78498842  0.92426487    -0.77000
C480        C  0.24083649  0.67005393  0.09053393     0.85000
O481        O  0.28968713  0.83103386  0.93108098    -0.77100
C482        C  0.17106095  0.73968495  0.08828712     0.85100
C483        C  0.18219560  0.67756311  0.91169469     0.85400
O484        O  0.18023989  0.70771634  0.92025372    -0.79500
O485        O  0.16656369  0.00463218  0.45650208    -0.77000
C486        C  0.15949698  0.92716830  0.57636276     0.84000
O487        O  0.26765698  0.58527214  0.56585058    -0.78100
O488        O  0.27650107  0.97022427  0.56781611    -0.79600
O489        O  0.24788954  0.95900873  0.37099040    -0.79400
O490        O  0.19176609  0.00291293  0.37425038    -0.78000
Zn491      Zn  0.19592979  0.00221640  0.51551855     1.55700
O492        O  0.25050685  0.92926173  0.44776937    -0.79400
Cd493      Cd  0.24074513  0.50327981  0.40266433     1.59700
Cd494      Cd  0.28227183  0.55130612  0.51469366     1.59600
O495        O  0.29198246  0.54946553  0.37413051    -0.79400
O496        O  0.23864198  0.50216685  0.48606005    -1.89900
Cd497      Cd  0.23366325  0.95286599  0.51286863     1.59900
O498        O  0.32386405  0.57738481  0.45221015    -0.79400
O499        O  0.18355702  0.91700607  0.56171954    -0.78000
C500        C  0.23400306  0.57362163  0.58482589     0.84500
C501        C  0.16600060  0.00395981  0.40403201     0.84200
O502        O  0.16264608  0.95795271  0.55874025    -0.77000
C503        C  0.25581717  0.93576930  0.39526245     0.85000
O504        O  0.20589461  0.54271645  0.56789111    -0.77100
C505        C  0.32303038  0.57236068  0.39941637     0.85100
C506        C  0.30338797  0.50241585  0.58458738     0.85400
O507        O  0.30776085  0.53416639  0.56838329    -0.79500
O508        O  0.50368210  0.66721794  0.04651737    -0.77000
C509        C  0.42605309  0.65921091  0.92304858     0.84000
O510        O  0.08559051  0.76923534  0.94221719    -0.78100
O511        O  0.47047720  0.77810103  0.93161657    -0.79600
O512        O  0.45263150  0.74494139  0.12740248    -0.79400
O513        O  0.50062849  0.69193083  0.12842624    -0.78000
Zn514      Zn  0.50029207  0.69574311  0.98690562     1.55700
O515        O  0.42614815  0.75039628  0.04893157    -0.79400
Cd516      Cd  0.49892610  0.73985980  0.09908408     1.59700
Cd517      Cd  0.04972544  0.78341086  0.98906219     1.59600
O518        O  0.04387325  0.79140107  0.13002913    -0.79400
O519        O  0.50004410  0.73880360  0.01554520    -1.89900
Cd520      Cd  0.45171630  0.73430859  0.98573472     1.59900
O521        O  0.07548865  0.82311742  0.05375043    -0.79400
O522        O  0.41694139  0.68432909  0.93627412    -0.78000
C523        C  0.07501441  0.73547749  0.92460202     0.84500
C524        C  0.50332821  0.66691075  0.09896953     0.84200
O525        O  0.45610568  0.66125963  0.94213226    -0.77000
C526        C  0.43079461  0.75426831  0.10187041     0.85000
O527        O  0.04328030  0.70727596  0.93894303    -0.77100
C528        C  0.06896122  0.82211386  0.10611417     0.85100
C529        C  0.00265640  0.80617583  0.91719813     0.85400
O530        O  0.03435040  0.81105257  0.93487875    -0.79500
O531        O  0.45300901  0.67580137  0.58088774    -0.77000
C532        C  0.49929360  0.68414593  0.42005325     0.84000
O533        O  0.07985014  0.78209229  0.59578339    -0.78100
O534        O  0.05131921  0.80625339  0.40159599    -0.79600
O535        O  0.42507069  0.76446502  0.47048631    -0.79400
O536        O  0.41628093  0.70193345  0.58798512    -0.78000
Zn537      Zn  0.49832473  0.71023209  0.53698964     1.55700
O538        O  0.46243488  0.76875531  0.39910756    -0.79400
Cd539      Cd  0.45079304  0.75205642  0.53823796     1.59700
Cd540      Cd  0.04853319  0.80080755  0.54385320     1.59600
O541        O  0.46633415  0.79939163  0.58533532    -0.79400
O542        O  0.50032946  0.75597364  0.51384562    -1.89900
Cd543      Cd  0.50345183  0.75927129  0.43102231     1.59900
O544        O  0.02994852  0.83052071  0.59065390    -0.79400
O545        O  0.49984023  0.71204404  0.39528671    -0.78000
C546        C  0.07026395  0.74719058  0.60665781     0.84500
C547        C  0.42348461  0.67519832  0.59971501     0.84200
O548        O  0.49941502  0.68148997  0.47258152    -0.77000
C549        C  0.43531780  0.77224948  0.41932848     0.85000
O550        O  0.04057830  0.71948678  0.58550807    -0.77100
C551        C  0.99789923  0.82836405  0.59966979     0.85100
C552        C  0.07352195  0.83822462  0.42463798     0.85400
O553        O  0.07720801  0.84134528  0.47788887    -0.79500
N554        N  0.49753184  0.65384159  0.38880178    -0.02000
C555        C  0.02781950  0.64892949  0.38156503     0.00600
C556        C  0.01418644  0.61079278  0.36829411    -0.22300
C557        C  0.47451002  0.59251447  0.36947726    -0.22500
C558        C  0.46488337  0.61996601  0.38323288     0.00500
H559        H  0.03093477  0.59860484  0.35285221     0.14300
H560        H  0.45512226  0.56373809  0.35477906     0.14300
C561        C  0.27476722  0.91829908  0.36254085     0.04600
C562        C  0.27065274  0.91333957  0.30359561    -0.11500
C563        C  0.28898122  0.89637880  0.27428728     0.02100
C564        C  0.30817554  0.88216894  0.30609066    -0.10100
C565        C  0.32007724  0.89510207  0.35991022     0.04600
C566        C  0.30216301  0.91178084  0.38939857    -0.09500
H567        H  0.25420309  0.92335080  0.28118460     0.10200
H568        H  0.31821431  0.86443149  0.28722881     0.07700
H569        H  0.30988690  0.92010880  0.43250997     0.07600
C570        C  0.35957592  0.59123771  0.36702626     0.04600
C571        C  0.35935272  0.59321479  0.30788362    -0.11500
C572        C  0.39405216  0.60954619  0.27764743     0.02100
C573        C  0.42839260  0.62698885  0.30806556    -0.10100
C574        C  0.42890253  0.61758272  0.36351160     0.04600
C575        C  0.39456310  0.60103979  0.39401350    -0.09500
H576        H  0.33240253  0.58046972  0.28577259     0.10200
H577        H  0.45563764  0.64304703  0.28676589     0.07700
H578        H  0.39486342  0.59446952  0.43768732     0.07600
N579        N  0.35201294  0.85842261  0.38110460    -0.02000
C580        C  0.35303866  0.89220995  0.38063060     0.00600
C581        C  0.39087488  0.92134782  0.37727975    -0.22300
C582        C  0.41310037  0.90396401  0.37850646    -0.22500
C583        C  0.38797827  0.86489914  0.38286028     0.00500
H584        H  0.40102703  0.95130103  0.36915169     0.14300
H585        H  0.44368223  0.91795452  0.37176740     0.14300
C586        C  0.41809428  0.78879455  0.38205654     0.04600
C587        C  0.41786989  0.78320867  0.32349806    -0.11500
C588        C  0.40495052  0.80145582  0.28675676     0.02100
C589        C  0.39055309  0.82358719  0.31060243    -0.10100
C590        C  0.39662484  0.83464981  0.36618960     0.04600
C591        C  0.40896318  0.81607675  0.40289939    -0.09500
H592        H  0.42871589  0.76555421  0.30698284     0.10200
H593        H  0.37571031  0.83426503  0.28563913     0.07700
H594        H  0.41235682  0.82346276  0.44678135     0.07600
C595        C  0.09032536  0.87241600  0.38718386     0.04600
C596        C  0.09555607  0.86777724  0.32953160    -0.11500
C597        C  0.09949095  0.89542520  0.29008551     0.02100
C598        C  0.09603881  0.92651242  0.30914981    -0.10100
C599        C  0.09403959  0.93339377  0.36541224     0.04600
C600        C  0.09176227  0.90662787  0.40497012    -0.09500
H601        H  0.09522904  0.84211016  0.31548180     0.10200
H602        H  0.09555368  0.94668797  0.28004066     0.07700
H603        H  0.08857551  0.91122877  0.44868994     0.07600
N604        N  0.13396117  0.00316260  0.37961292    -0.02000
C605        C  0.12983372  0.53420171  0.37718985     0.00600
C606        C  0.09139437  0.52199207  0.36974671    -0.22300
C607        C  0.07185241  0.98215132  0.37137858    -0.22500
C608        C  0.09903938  0.97142313  0.37971174     0.00500
H609        H  0.07931038  0.53973258  0.35919613     0.14300
H610        H  0.04180854  0.96327462  0.36248624     0.14300
C611        C  0.13472644  0.72321424  0.37175644     0.04600
C612        C  0.13803631  0.72612081  0.31295240    -0.11500
C613        C  0.10536421  0.70762375  0.27906792     0.02100
C614        C  0.06925869  0.68867832  0.30537491    -0.10100
C615        C  0.06564396  0.68044424  0.36208722     0.04600
C616        C  0.09834260  0.69885482  0.39597586    -0.09500
H617        H  0.16609156  0.74102211  0.29383266     0.10200
H618        H  0.04323153  0.67659324  0.28096017     0.07700
H619        H  0.09578974  0.69277839  0.44022912     0.07600
C620        C  0.21968686  0.63400614  0.37343468     0.04600
C621        C  0.22765208  0.63570242  0.31544056    -0.11500
C622        C  0.20279962  0.60575723  0.27932802     0.02100
C623        C  0.16886381  0.57565880  0.30183903    -0.10100
C624        C  0.16185359  0.57172610  0.35871031     0.04600
C625        C  0.18757701  0.60063069  0.39508099    -0.09500
H626        H  0.25263254  0.66062244  0.29864617     0.10200
H627        H  0.14732872  0.55382598  0.27510454     0.07700
H628        H  0.18138538  0.59813624  0.43933021     0.07600
C629        C  0.27794902  0.90323989  0.11490536     0.04600
C630        C  0.27007032  0.90148983  0.17284344    -0.11500
C631        C  0.29385454  0.89700515  0.21170813     0.02100
C632        C  0.32610580  0.89602859  0.19060268    -0.10100
C633        C  0.33223147  0.89434222  0.13408736     0.04600
C634        C  0.30775883  0.89726975  0.09607768    -0.09500
H635        H  0.24756795  0.90646621  0.18730646     0.10200
H636        H  0.34798641  0.89736401  0.21785979     0.07700
H637        H  0.31412555  0.89859582  0.05193378     0.07600
C638        C  0.37360596  0.59075904  0.11956813     0.04600
C639        C  0.36842317  0.59725296  0.17629370    -0.11500
C640        C  0.39656030  0.60290475  0.21638280     0.02100
C641        C  0.42810071  0.59959737  0.19856008    -0.10100
C642        C  0.43501379  0.59636147  0.14291634     0.04600
C643        C  0.40833180  0.59294533  0.10318814    -0.09500
H644        H  0.34200328  0.59566010  0.18927713     0.10200
H645        H  0.44838955  0.59974091  0.22801722     0.07700
H646        H  0.41328081  0.58910502  0.05981229     0.07600
N647        N  0.36172978  0.85444628  0.11453640    -0.02000
C648        C  0.36472487  0.88923411  0.11710048     0.00600
C649        C  0.40283651  0.91720683  0.12077610    -0.22300
C650        C  0.42356634  0.89846405  0.11773641    -0.22500
C651        C  0.39745147  0.85952351  0.11278416     0.00500
H652        H  0.41414468  0.94731787  0.12952897     0.14300
H653        H  0.45394323  0.91135403  0.12539574     0.14300
C654        C  0.41491526  0.77513594  0.13388747     0.04600
C655        C  0.41320070  0.77374630  0.19319214    -0.11500
C656        C  0.40842549  0.80107778  0.22405204     0.02100
C657        C  0.40823764  0.83080113  0.19417274    -0.10100
C658        C  0.40525867  0.83030756  0.13669992     0.04600
C659        C  0.40830760  0.80225385  0.10599392    -0.09500
H660        H  0.41661581  0.75216909  0.21467391     0.10200
H661        H  0.41002013  0.85532485  0.21529795     0.07700
H662        H  0.40824256  0.80330850  0.06089754     0.07600
C663        C  0.08876875  0.85847476  0.13901427     0.04600
C664        C  0.10150000  0.89380579  0.11130506    -0.11500
C665        C  0.11793423  0.92825632  0.14142992     0.02100
C666        C  0.12381874  0.92760643  0.19836325    -0.10100
C667        C  0.10568196  0.89308685  0.22857136     0.04600
C668        C  0.08929209  0.85825995  0.19825914    -0.09500
H669        H  0.09699192  0.89439566  0.06690681     0.10200
H670        H  0.13891119  0.95487771  0.21992427     0.07700
H671        H  0.07542402  0.83124635  0.22030583     0.07600
N672        N  0.15737709  0.99623633  0.11041795    -0.02000
C673        C  0.15329944  0.52742592  0.11482377     0.00600
C674        C  0.11529418  0.51531998  0.12613553    -0.22300
C675        C  0.09607388  0.97572264  0.12837264    -0.22500
C676        C  0.12276444  0.96452853  0.11835962     0.00500
H677        H  0.10380827  0.53328657  0.13880939     0.14300
H678        H  0.06704987  0.95757024  0.14301214     0.14300
C679        C  0.13549437  0.72029082  0.12330462     0.04600
C680        C  0.13726998  0.72751901  0.18169045    -0.11500
C681        C  0.10735008  0.70197652  0.21744937     0.02100
C682        C  0.07787786  0.66808768  0.19435454    -0.10100
C683        C  0.07313424  0.66239767  0.13744208     0.04600
C684        C  0.10170848  0.68873769  0.10119610    -0.09500
H685        H  0.16215174  0.75229560  0.19893304     0.10200
H686        H  0.05670851  0.64571653  0.22077483     0.07700
H687        H  0.09872872  0.68332384  0.05675356     0.07600
C688        C  0.22541089  0.63482722  0.12538296     0.04600
C689        C  0.20215142  0.59826642  0.10083792    -0.11500
C690        C  0.18457098  0.56530201  0.13436769     0.02100
C691        C  0.19225150  0.56876611  0.19118387    -0.10100
C692        C  0.20958773  0.60467453  0.21788134     0.04600
C693        C  0.22751007  0.63778873  0.18436751    -0.09500
H694        H  0.19624579  0.59566831  0.05653575     0.10200
H695        H  0.18052189  0.54263414  0.21540584     0.07700
H696        H  0.24128168  0.66579859  0.20386588     0.07600
N697        N  0.50426607  0.63571235  0.12364191    -0.02000
C698        C  0.03498515  0.63102533  0.12013160     0.00600
C699        C  0.02274297  0.59248167  0.12794158    -0.22300
C700        C  0.48312953  0.57338674  0.13287510    -0.22500
C701        C  0.47265710  0.60096710  0.12805929     0.00500
H702        H  0.04075591  0.58018346  0.13486911     0.14300
H703        H  0.46455741  0.54341427  0.14271219     0.14300
O704        O  0.32350533  0.82786908  0.46064909    -0.77000
C705        C  0.25713488  0.83332717  0.58730885     0.84000
O706        O  0.30810856  0.72673442  0.57458785    -0.78100
O707        O  0.18011687  0.71519619  0.57150945    -0.79600
O708        O  0.19989640  0.74221585  0.38384908    -0.79400
O709        O  0.29644803  0.79877699  0.38048875    -0.78000
Zn710      Zn  0.29579786  0.79844494  0.52275961     1.55700
O711        O  0.16894913  0.74680426  0.45775750    -0.79400
Cd712      Cd  0.25121414  0.75030504  0.41331092     1.59700
Cd713      Cd  0.25732402  0.70963235  0.52546576     1.59600
O714        O  0.24895971  0.70115270  0.38389433    -0.79400
O715        O  0.25304231  0.75383522  0.49615493    -1.89900
Cd716      Cd  0.20901168  0.75963768  0.52135871     1.59900
O717        O  0.24166303  0.66771920  0.46132466    -0.79400
O718        O  0.22353313  0.80845829  0.57119315    -0.78000
C719        C  0.33313625  0.76164579  0.58572618     0.84500
C720        C  0.32236069  0.82663073  0.40818071     0.84200
O721        O  0.28615001  0.83201746  0.57090660    -0.77000
C722        C  0.16988458  0.73909065  0.40628423     0.85000
O723        O  0.33000527  0.78891407  0.56624719    -0.77100
C724        C  0.23917322  0.66954546  0.40823301     0.85100
C725        C  0.18355182  0.68752903  0.58893448     0.85400
O726        O  0.21207336  0.68354037  0.57747224    -0.79500
C727        C  0.26432003  0.86525758  0.62476287     0.04600
C728        C  0.28998371  0.90291112  0.60638256    -0.11500
C729        C  0.30072388  0.93390430  0.64251888     0.02100
C730        C  0.28277821  0.92724599  0.69406845    -0.10100
C731        C  0.26808879  0.89088270  0.71849409     0.04600
C732        C  0.25579547  0.85905249  0.68250385    -0.09500
H733        H  0.30269624  0.90784324  0.56521067     0.10200
H734        H  0.28987988  0.95185552  0.72041964     0.07700
H735        H  0.24383716  0.83045738  0.69954956     0.07600
C736        C  0.36683410  0.77400285  0.62250212     0.04600
C737        C  0.36335733  0.76087882  0.67826422    -0.11500
C738        C  0.39257957  0.78296457  0.71739809     0.02100
C739        C  0.42313725  0.81879458  0.70025236    -0.10100
C740        C  0.42853249  0.83036893  0.64528366     0.04600
C741        C  0.40067457  0.80781298  0.60616123    -0.09500
H742        H  0.33763011  0.73522501  0.69151432     0.10200
H743        H  0.44426097  0.83827157  0.72977752     0.07700
H744        H  0.40431001  0.81774911  0.56344672     0.07600
N745        N  0.33214496  0.50315232  0.61868519    -0.02000
C746        C  0.33469326  0.97228420  0.63268614     0.00600
C747        C  0.36988461  0.98464498  0.65744584    -0.22300
C748        C  0.38891295  0.52436383  0.65781136    -0.22500
C749        C  0.36469942  0.53510847  0.63356173     0.00500
H750        H  0.37909192  0.96693957  0.67824060     0.14300
H751        H  0.41556769  0.54301923  0.67897443     0.14300
C752        C  0.39805197  0.64160478  0.63471777     0.04600
C753        C  0.39589592  0.64504695  0.69349465    -0.11500
C754        C  0.37651285  0.61148527  0.72645527     0.02100
C755        C  0.35481468  0.57636830  0.69858637    -0.10100
C756        C  0.36662535  0.57217356  0.64599811     0.04600
C757        C  0.38645939  0.60477090  0.61254134    -0.09500
H758        H  0.41260182  0.67279215  0.71329096     0.10200
H759        H  0.33734944  0.55057812  0.72268599     0.07700
H760        H  0.39470459  0.60174204  0.57063880     0.07600
C761        C  0.09380898  0.73592505  0.64047194     0.04600
C762        C  0.10098485  0.70814423  0.61619119    -0.11500
C763        C  0.11940783  0.69285046  0.64666305     0.02100
C764        C  0.13407404  0.70810346  0.69853355    -0.10100
C765        C  0.11737388  0.72538523  0.72957879     0.04600
C766        C  0.09917472  0.74212184  0.69916932    -0.09500
H767        H  0.09107827  0.69746875  0.57444348     0.10200
H768        H  0.15265700  0.69952902  0.71823399     0.07700
H769        H  0.08656109  0.75665137  0.72076272     0.07600
N770        N  0.15202256  0.65771014  0.61766797    -0.02000
C771        C  0.11948536  0.65749387  0.63052472     0.00600
C772        C  0.09375995  0.62206850  0.65280604    -0.22300
C773        C  0.11183857  0.60064991  0.65326909    -0.22500
C774        C  0.14797095  0.62358217  0.63100372     0.00500
H775        H  0.06709843  0.61453625  0.67358411     0.14300
H776        H  0.10157735  0.57343353  0.67400012     0.14300
C777        C  0.22456225  0.59553286  0.62462155     0.04600
C778        C  0.23220934  0.59659785  0.68273459    -0.11500
C779        C  0.21589417  0.61156923  0.72061138     0.02100
C780        C  0.19596296  0.62848674  0.69762816    -0.10100
C781        C  0.18096897  0.61890371  0.64442056     0.04600
C782        C  0.19657185  0.60418006  0.60686586    -0.09500
H783        H  0.24793584  0.58335289  0.69804922     0.10200
H784        H  0.18739688  0.64511400  0.72306720     0.07700
H785        H  0.18598432  0.59817839  0.56440157     0.07600
C786        C  0.12738538  0.90611973  0.61582910     0.04600
C787        C  0.09297497  0.90532519  0.60224946    -0.11500
C788        C  0.06682252  0.90117055  0.64360485     0.02100
C789        C  0.07463708  0.89713139  0.69843531    -0.10100
C790        C  0.10642151  0.89354086  0.71350265     0.04600
C791        C  0.13364778  0.89917220  0.67173514    -0.09500
H792        H  0.08750553  0.91005492  0.55964228     0.10200
H793        H  0.05459574  0.89588005  0.72959743     0.07700
H794        H  0.16010736  0.90030892  0.68295414     0.07600
N795        N  0.99754090  0.86142493  0.62091343    -0.02000
C796        C  0.46595206  0.86414286  0.63041183     0.00600
C797        C  0.47721239  0.90106208  0.64789464    -0.22300
C798        C  0.01686749  0.92128405  0.64826067    -0.22500
C799        C  0.02869142  0.89615171  0.63095475     0.00500
H800        H  0.45883213  0.91097207  0.66464290     0.14300
H801        H  0.03484234  0.94980152  0.66494096     0.14300
N802        N  0.00298218  0.83557662  0.88474864    -0.02000
C803        C  0.47154903  0.83712411  0.87045538     0.00600
C804        C  0.48290918  0.87316667  0.84956619    -0.22300
C805        C  0.02249440  0.89382092  0.85186483    -0.22500
C806        C  0.03437839  0.86980199  0.87379954     0.00500
H807        H  0.46486194  0.88202104  0.82896920     0.14900
H808        H  0.04060948  0.92137862  0.83252287     0.14300
C809        C  0.23030102  0.59105675  0.87439607     0.04600
C810        C  0.23630107  0.59676050  0.81576710    -0.11500
C811        C  0.21219032  0.60476093  0.78288493     0.02100
C812        C  0.18084507  0.60414803  0.80967924    -0.10100
C813        C  0.17646971  0.60258237  0.86699075     0.04600
C814        C  0.20142157  0.59618018  0.89998856    -0.09500
H815        H  0.25872623  0.59371856  0.79601359     0.10200
H816        H  0.15843451  0.60474765  0.78601950     0.07700
H817        H  0.19663825  0.59252555  0.94453955     0.07600
C818        C  0.14147137  0.90633625  0.86467140     0.04600
C819        C  0.14332617  0.90493724  0.80544893    -0.11500
C820        C  0.10931243  0.88544866  0.77384038     0.02100
C821        C  0.07463155  0.86446753  0.80276137    -0.10100
C822        C  0.07170740  0.87369977  0.85762897     0.04600
C823        C  0.10515265  0.89301762  0.88982757    -0.09500
H824        H  0.17063263  0.92057756  0.78429786     0.10200
H825        H  0.04832064  0.84711635  0.77976977     0.07700
H826        H  0.10306583  0.89942768  0.93314913     0.07600
C827        C  0.27375467  0.86662027  0.87288962     0.04600
C828        C  0.30760959  0.90132914  0.88751610    -0.11500
C829        C  0.32921842  0.92852118  0.84674367     0.02100
C830        C  0.31626981  0.92176928  0.79256337    -0.10100
C831        C  0.28009819  0.89094873  0.77759284     0.04600
C832        C  0.25918720  0.86224902  0.81784532    -0.09500
H833        H  0.31854442  0.90582965  0.92972418     0.10200
H834        H  0.33477751  0.94237092  0.76175692     0.07700
H835        H  0.23333935  0.83624093  0.80588760     0.07600
C836        C  0.36503538  0.76394051  0.87062180     0.04600
C837        C  0.40209841  0.78918324  0.89158065    -0.11500
C838        C  0.43408217  0.80277867  0.85670495     0.02100
C839        C  0.42907818  0.78844386  0.80278629    -0.10100
C840        C  0.39288867  0.77246371  0.77732753     0.04600
C841        C  0.36029775  0.75763494  0.81226484    -0.09500
H842        H  0.40577016  0.79982857  0.93398477     0.10200
H843        H  0.45444623  0.79754239  0.77735661     0.07700
H844        H  0.33199339  0.74522550  0.79422962     0.07600
N845        N  0.36083250  0.49798297  0.86664488    -0.02000
C846        C  0.36359734  0.96647021  0.85812053     0.00600
C847        C  0.39992305  0.97811823  0.83747717    -0.22300
C848        C  0.41978192  0.51800847  0.83664055    -0.22500
C849        C  0.39496651  0.52944409  0.85682727     0.00500
H850        H  0.40970398  0.95981176  0.81997119     0.14300
H851        H  0.44789218  0.53629936  0.81902270     0.14300
C852        C  0.40462774  0.62768683  0.88248915     0.04600
C853        C  0.39529099  0.63488584  0.82851115    -0.11500
C854        C  0.38819145  0.60849122  0.78481488     0.02100
C855        C  0.39327807  0.57697257  0.79573617    -0.10100
C856        C  0.39899653  0.56776686  0.84881750     0.04600
C857        C  0.40381046  0.59268539  0.89265331    -0.09500
H858        H  0.39551972  0.66132735  0.82008624     0.10200
H859        H  0.39116956  0.55772855  0.76269889     0.07700
H860        H  0.40965362  0.58619146  0.93402296     0.07600
C861        C  0.09818642  0.72593584  0.88767463     0.04600
C862        C  0.10435736  0.73758463  0.83111522    -0.11500
C863        C  0.11265276  0.71678119  0.79138914     0.02100
C864        C  0.11312862  0.68363183  0.81017310    -0.10100
C865        C  0.10953844  0.67344104  0.86600356     0.04600
C866        C  0.10242611  0.69486559  0.90478959    -0.09500
H867        H  0.10011689  0.76076998  0.81787124     0.10200
H868        H  0.11536983  0.66414286  0.78150251     0.07700
H869        H  0.09747066  0.68567378  0.94791690     0.07600
N870        N  0.14907082  0.64391942  0.89134661    -0.02000
C871        C  0.11450635  0.64065022  0.88232487     0.00600
C872        C  0.08780960  0.60263043  0.87262825    -0.22300
C873        C  0.10696363  0.58232245  0.87669329    -0.22500
C874        C  0.14506811  0.60845974  0.88828170     0.00500
H875        H  0.05865554  0.59139389  0.85869938     0.14300
H876        H  0.09543886  0.55264111  0.86482104     0.14300
O877        O  0.83258783  0.99735350  0.94851435    -0.77000
C878        C  0.84070124  0.07026944  0.08090111     0.84000
O879        O  0.73218664  0.41575619  0.06677437    -0.78100
O880        O  0.71839912  0.02867958  0.07278910    -0.79600
O881        O  0.75306923  0.04735412  0.88024852    -0.79400
O882        O  0.80418486  0.00015211  0.87074933    -0.78000
Zn883      Zn  0.80417791  0.99820476  0.01114141     1.55700
O884        O  0.75257870  0.07660352  0.95923517    -0.79400
Cd885      Cd  0.75741737  0.50064889  0.90589171     1.59700
Cd886      Cd  0.71539415  0.44895717  0.01713688     1.59600
O887        O  0.70645243  0.45548445  0.87579811    -0.79400
O888        O  0.75975200  0.99871963  0.98923661    -1.89900
Cd889      Cd  0.76466374  0.04708506  0.02198175     1.59900
O890        O  0.67639081  0.42072070  0.95097398    -0.79400
O891        O  0.81466771  0.07901098  0.07321562    -0.78000
C892        C  0.76679538  0.42482619  0.07707095     0.84500
C893        C  0.83083807  0.99831379  0.89625005     0.84200
O894        O  0.83884094  0.04146017  0.05700728    -0.77000
C895        C  0.74768216  0.07183902  0.90632940     0.85000
O896        O  0.79450802  0.45460801  0.05640069    -0.77100
C897        C  0.67690193  0.42814768  0.89889434     0.85100
C898        C  0.68919878  0.49644776  0.08444727     0.85400
O899        O  0.68532065  0.46466416  0.06808388    -0.79500
O900        O  0.83126352  0.32390769  0.03496155    -0.77000
C901        C  0.83227325  0.25596960  0.90685624     0.84000
O902        O  0.72731285  0.30658607  0.91927945    -0.78100
O903        O  0.71069582  0.17465980  0.92670522    -0.79600
O904        O  0.74415241  0.20027680  0.11284856    -0.79400
O905        O  0.80180951  0.29812645  0.11516961    -0.78000
Zn906      Zn  0.79919989  0.29576385  0.97347706     1.55700
O907        O  0.74784169  0.16877350  0.03875521    -0.79400
Cd908      Cd  0.75225886  0.25184167  0.08276616     1.59700
Cd909      Cd  0.70946308  0.25555425  0.96916751     1.59600
O910        O  0.70271534  0.24920812  0.11236227    -0.79400
O911        O  0.75412450  0.25220239  0.99919768    -1.89900
Cd912      Cd  0.75810601  0.20695515  0.97273347     1.59900
O913        O  0.66901303  0.24202826  0.03514480    -0.79400
O914        O  0.80689444  0.22206686  0.92158509    -0.78000
C915        C  0.76209288  0.33303695  0.91020048     0.84500
C916        C  0.83028571  0.32347505  0.08751483     0.84200
O917        O  0.83124371  0.28498846  0.92426481    -0.77000
C918        C  0.74083642  0.17005392  0.09053393     0.85000
O919        O  0.78968708  0.33103380  0.93108100    -0.77100
C920        C  0.67106093  0.23968490  0.08828706     0.85100
C921        C  0.68219563  0.17756316  0.91169470     0.85400
O922        O  0.68023986  0.20771637  0.92025376    -0.79500
O923        O  0.66656363  0.50463218  0.45650211    -0.77000
C924        C  0.65949702  0.42716835  0.57636276     0.84000
O925        O  0.76765690  0.08527198  0.56585066    -0.78100
O926        O  0.77650105  0.47022424  0.56781615    -0.79600
O927        O  0.74788948  0.45900876  0.37099048    -0.79400
O928        O  0.69176602  0.50291296  0.37425039    -0.78000
Zn929      Zn  0.69592983  0.50221638  0.51551853     1.55700
O930        O  0.75050682  0.42926167  0.44776934    -0.79400
Cd931      Cd  0.74074511  0.00327970  0.40266434     1.59700
Cd932      Cd  0.78227187  0.05130611  0.51469372     1.59600
O933        O  0.79198239  0.04946549  0.37413051    -0.79400
O934        O  0.73864193  0.00216688  0.48606009    -1.89900
Cd935      Cd  0.73366330  0.45286598  0.51286862     1.59900
O936        O  0.82386403  0.07738481  0.45221011    -0.79400
O937        O  0.68355706  0.41700611  0.56171957    -0.78000
C938        C  0.73400297  0.07362155  0.58482585     0.84500
C939        C  0.66600051  0.50395980  0.40403204     0.84200
O940        O  0.66264613  0.45795276  0.55874024    -0.77000
C941        C  0.75581712  0.43576928  0.39526246     0.85000
O942        O  0.70589446  0.04271643  0.56789102    -0.77100
C943        C  0.82303033  0.07236063  0.39941636     0.85100
C944        C  0.80338801  0.00241590  0.58458744     0.85400
O945        O  0.80776085  0.03416642  0.56838349    -0.79500
O946        O  0.00368227  0.16721803  0.04651737    -0.77000
C947        C  0.92605302  0.15921089  0.92304861     0.84000
O948        O  0.58559042  0.26923539  0.94221711    -0.78100
O949        O  0.97047717  0.27810100  0.93161656    -0.79600
O950        O  0.95263156  0.24494147  0.12740248    -0.79400
O951        O  0.00062844  0.19193081  0.12842623    -0.78000
Zn952      Zn  0.00029213  0.19574314  0.98690562     1.55700
O953        O  0.92614818  0.25039635  0.04893159    -0.79400
Cd954      Cd  0.99892617  0.23985986  0.09908410     1.59700
Cd955      Cd  0.54972541  0.28341093  0.98906220     1.59600
O956        O  0.54387332  0.29140107  0.13002910    -0.79400
O957        O  0.00004408  0.23880364  0.01554519    -1.89900
Cd958      Cd  0.95171625  0.23430862  0.98573472     1.59900
O959        O  0.57548873  0.32311746  0.05375043    -0.79400
O960        O  0.91694136  0.18432912  0.93627409    -0.78000
C961        C  0.57501441  0.23547754  0.92460201     0.84500
C962        C  0.00332825  0.16691076  0.09896955     0.84200
O963        O  0.95610560  0.16125958  0.94213234    -0.77000
C964        C  0.93079465  0.25426837  0.10187043     0.85000
O965        O  0.54328033  0.20727597  0.93894305    -0.77100
C966        C  0.56896129  0.32211386  0.10611416     0.85100
C967        C  0.50265644  0.30617584  0.91719810     0.85400
O968        O  0.53435042  0.31105263  0.93487879    -0.79500
O969        O  0.95300908  0.17580133  0.58088777    -0.77000
C970        C  0.99929355  0.18414592  0.42005323     0.84000
O971        O  0.57985026  0.28209233  0.59578336    -0.78100
O972        O  0.55131931  0.30625341  0.40159599    -0.79600
O973        O  0.92507069  0.26446504  0.47048634    -0.79400
O974        O  0.91628100  0.20193341  0.58798517    -0.78000
Zn975      Zn  0.99832476  0.21023203  0.53698962     1.55700
O976        O  0.96243485  0.26875533  0.39910759    -0.79400
Cd977      Cd  0.95079306  0.25205631  0.53823791     1.59700
Cd978      Cd  0.54853329  0.30080758  0.54385319     1.59600
O979        O  0.96633405  0.29939146  0.58533537    -0.79400
O980        O  0.00032955  0.25597360  0.51384563    -1.89900
Cd981      Cd  0.00345173  0.25927120  0.43102233     1.59900
O982        O  0.52994839  0.33052057  0.59065392    -0.79400
O983        O  0.99984007  0.21204398  0.39528669    -0.78000
C984        C  0.57026396  0.24719059  0.60665780     0.84500
C985        C  0.92348468  0.17519828  0.59971505     0.84200
O986        O  0.99941511  0.18149001  0.47258150    -0.77000
C987        C  0.93531780  0.27224953  0.41932852     0.85000
O988        O  0.54057829  0.21948683  0.58550808    -0.77100
C989        C  0.49789910  0.32836394  0.59966981     0.85100
C990        C  0.57352206  0.33822465  0.42463800     0.85400
O991        O  0.57720813  0.34134533  0.47788889    -0.79500
N992        N  0.99753181  0.15384163  0.38880176    -0.02000
C993        C  0.52781950  0.14892953  0.38156503     0.00600
C994        C  0.51418645  0.11079282  0.36829411    -0.22300
C995        C  0.97451001  0.09251450  0.36947724    -0.22500
C996        C  0.96488334  0.11996604  0.38323288     0.00500
H997        H  0.53093479  0.09860489  0.35285223     0.14300
H998        H  0.95512227  0.06373811  0.35477899     0.14300
C999        C  0.77476717  0.41829906  0.36254081     0.04600
C1000       C  0.77065268  0.41333950  0.30359560    -0.11500
C1001       C  0.78898117  0.39637877  0.27428727     0.02100
C1002       C  0.80817559  0.38216897  0.30609064    -0.10100
C1003       C  0.82007726  0.39510210  0.35991021     0.04600
C1004       C  0.80216293  0.41178075  0.38939860    -0.09500
H1005       H  0.75420290  0.42335065  0.28118455     0.10200
H1006       H  0.81821435  0.36443157  0.28722884     0.07700
H1007       H  0.80988672  0.42010858  0.43251003     0.07600
C1008       C  0.85957587  0.09123763  0.36702622     0.04600
C1009       C  0.85935273  0.09321480  0.30788362    -0.11500
C1010       C  0.89405213  0.10954619  0.27764743     0.02100
C1011       C  0.92839260  0.12698891  0.30806555    -0.10100
C1012       C  0.92890250  0.11758276  0.36351160     0.04600
C1013       C  0.89456308  0.10103980  0.39401350    -0.09500
H1014       H  0.83240248  0.08046975  0.28577254     0.10200
H1015       H  0.95563759  0.14304706  0.28676592     0.07700
H1016       H  0.89486342  0.09446959  0.43768732     0.07600
N1017       N  0.85201297  0.35842267  0.38110460    -0.02000
C1018       C  0.85303870  0.39221000  0.38063058     0.00600
C1019       C  0.89087492  0.42134788  0.37727970    -0.22300
C1020       C  0.91310044  0.40396407  0.37850644    -0.22500
C1021       C  0.88797830  0.36489918  0.38286026     0.00500
H1022       H  0.90102707  0.45130106  0.36915155     0.14300
H1023       H  0.94368225  0.41795457  0.37176736     0.14300
C1024       C  0.91809426  0.28879457  0.38205655     0.04600
C1025       C  0.91786979  0.28320861  0.32349808    -0.11500
C1026       C  0.90495043  0.30145576  0.28675677     0.02100
C1027       C  0.89055304  0.32358718  0.31060240    -0.10100
C1028       C  0.89662487  0.33464985  0.36618959     0.04600
C1029       C  0.90896316  0.31607677  0.40289938    -0.09500
H1030       H  0.92871572  0.26555408  0.30698289     0.10200
H1031       H  0.87571029  0.33426499  0.28563916     0.07700
H1032       H  0.91235673  0.32346272  0.44678137     0.07600
C1033       C  0.59032543  0.37241600  0.38718388     0.04600
C1034       C  0.59555610  0.36777723  0.32953162    -0.11500
C1035       C  0.59949098  0.39542514  0.29008554     0.02100
C1036       C  0.59603885  0.42651240  0.30914978    -0.10100
C1037       C  0.59403959  0.43339373  0.36541224     0.04600
C1038       C  0.59176227  0.40662786  0.40497010    -0.09500
H1039       H  0.59522900  0.34211006  0.31548181     0.10200
H1040       H  0.59555364  0.44668784  0.28004069     0.07700
H1041       H  0.58857542  0.41122876  0.44868992     0.07600
N1042       N  0.63396112  0.50316259  0.37961294    -0.02000
C1043       C  0.62983372  0.03420174  0.37718985     0.00600
C1044       C  0.59139436  0.02199205  0.36974673    -0.22300
C1045       C  0.57185237  0.48215131  0.37137857    -0.22500
C1046       C  0.59903933  0.47142310  0.37971171     0.00500
H1047       H  0.57931030  0.03973255  0.35919614     0.14300
H1048       H  0.54180848  0.46327465  0.36248623     0.14300
C1049       C  0.63472643  0.22321432  0.37175643     0.04600
C1050       C  0.63803634  0.22612091  0.31295238    -0.11500
C1051       C  0.60536421  0.20762378  0.27906791     0.02100
C1052       C  0.56925870  0.18867835  0.30537493    -0.10100
C1053       C  0.56564396  0.18044430  0.36208724     0.04600
C1054       C  0.59834261  0.19885486  0.39597586    -0.09500
H1055       H  0.66609156  0.24102223  0.29383266     0.10200
H1056       H  0.54323153  0.17659328  0.28096024     0.07700
H1057       H  0.59578974  0.19277836  0.44022910     0.07600
C1058       C  0.71968696  0.13400618  0.37343468     0.04600
C1059       C  0.72765218  0.13570244  0.31544055    -0.11500
C1060       C  0.70279968  0.10575725  0.27932803     0.02100
C1061       C  0.66886381  0.07565890  0.30183905    -0.10100
C1062       C  0.66185358  0.07172618  0.35871032     0.04600
C1063       C  0.68757709  0.10063073  0.39508099    -0.09500
H1064       H  0.75263264  0.16062244  0.29864615     0.10200
H1065       H  0.64732868  0.05382609  0.27510453     0.07700
H1066       H  0.68138550  0.09813627  0.43933022     0.07600
C1067       C  0.77794904  0.40323990  0.11490534     0.04600
C1068       C  0.77007026  0.40148968  0.17284340    -0.11500
C1069       C  0.79385448  0.39700505  0.21170813     0.02100
C1070       C  0.82610577  0.39602855  0.19060269    -0.10100
C1071       C  0.83223143  0.39434214  0.13408739     0.04600
C1072       C  0.80775888  0.39726977  0.09607770    -0.09500
H1073       H  0.74756783  0.40646603  0.18730643     0.10200
H1074       H  0.84798645  0.39736412  0.21785983     0.07700
H1075       H  0.81412570  0.39859592  0.05193381     0.07600
C1076       C  0.87360590  0.09075910  0.11956814     0.04600
C1077       C  0.86842316  0.09725298  0.17629374    -0.11500
C1078       C  0.89656028  0.10290469  0.21638282     0.02100
C1079       C  0.92810068  0.09959734  0.19856006    -0.10100
C1080       C  0.93501373  0.09636145  0.14291631     0.04600
C1081       C  0.90833173  0.09294535  0.10318813    -0.09500
H1082       H  0.84200331  0.09566020  0.18927722     0.10200
H1083       H  0.94838961  0.09974100  0.22801717     0.07700
H1084       H  0.91328073  0.08910510  0.05981229     0.07600
N1085       N  0.86172977  0.35444622  0.11453647    -0.02000
C1086       C  0.86472484  0.38923404  0.11710051     0.00600
C1087       C  0.90283644  0.41720680  0.12077609    -0.22300
C1088       C  0.92356634  0.39846408  0.11773640    -0.22500
C1089       C  0.89745150  0.35952353  0.11278417     0.00500
H1090       H  0.91414456  0.44731783  0.12952896     0.14300
H1091       H  0.95394321  0.41135412  0.12539572     0.14300
C1092       C  0.91491530  0.27513599  0.13388747     0.04600
C1093       C  0.91320071  0.27374634  0.19319213    -0.11500
C1094       C  0.90842549  0.30107780  0.22405205     0.02100
C1095       C  0.90823772  0.33080121  0.19417276    -0.10100
C1096       C  0.90525878  0.33030765  0.13669993     0.04600
C1097       C  0.90830768  0.30225393  0.10599392    -0.09500
H1098       H  0.91661585  0.25216914  0.21467394     0.10200
H1099       H  0.91002022  0.35532493  0.21529799     0.07700
H1100       H  0.90824267  0.30330861  0.06089753     0.07600
C1101       C  0.58876877  0.35847476  0.13901427     0.04600
C1102       C  0.60149998  0.39380577  0.11130506    -0.11500
C1103       C  0.61793422  0.42825630  0.14142992     0.02100
C1104       C  0.62381870  0.42760637  0.19836325    -0.10100
C1105       C  0.60568196  0.39308681  0.22857136     0.04600
C1106       C  0.58929209  0.35825990  0.19825914    -0.09500
H1107       H  0.59699194  0.39439561  0.06690680     0.10200
H1108       H  0.63891122  0.45487768  0.21992431     0.07700
H1109       H  0.57542414  0.33124632  0.22030577     0.07600
N1110       N  0.65737710  0.49623636  0.11041804    -0.02000
C1111       C  0.65329943  0.02742594  0.11482373     0.00600
C1112       C  0.61529419  0.01532002  0.12613551    -0.22300
C1113       C  0.59607387  0.47572259  0.12837262    -0.22500
C1114       C  0.62276446  0.46452852  0.11835963     0.00500
H1115       H  0.60380829  0.03328665  0.13880941     0.14300
H1116       H  0.56704986  0.45757018  0.14301210     0.14300
C1117       C  0.63549434  0.22029078  0.12330457     0.04600
C1118       C  0.63726999  0.22751895  0.18169040    -0.11500
C1119       C  0.60735005  0.20197654  0.21744933     0.02100
C1120       C  0.57787778  0.16808772  0.19435451    -0.10100
C1121       C  0.57313420  0.16239764  0.13744206     0.04600
C1122       C  0.60170840  0.18873769  0.10119603    -0.09500
H1123       H  0.66215183  0.25229548  0.19893297     0.10200
H1124       H  0.55670843  0.14571661  0.22077483     0.07700
H1125       H  0.59872859  0.18332389  0.05675351     0.07600
C1126       C  0.72541079  0.13482721  0.12538296     0.04600
C1127       C  0.70215130  0.09826641  0.10083793    -0.11500
C1128       C  0.68457096  0.06530201  0.13436768     0.02100
C1129       C  0.69225146  0.06876608  0.19118388    -0.10100
C1130       C  0.70958778  0.10467452  0.21788135     0.04600
C1131       C  0.72751011  0.13778870  0.18436750    -0.09500
H1132       H  0.69624559  0.09566829  0.05653577     0.10200
H1133       H  0.68052178  0.04263412  0.21540581     0.07700
H1134       H  0.74128183  0.16579857  0.20386589     0.07600
N1135       N  0.00426604  0.13571234  0.12364192    -0.02000
C1136       C  0.53498513  0.13102527  0.12013162     0.00600
C1137       C  0.52274292  0.09248162  0.12794159    -0.22300
C1138       C  0.98312944  0.07338670  0.13287509    -0.22500
C1139       C  0.97265704  0.10096708  0.12805923     0.00500
H1140       H  0.54075589  0.08018339  0.13486911     0.14300
H1141       H  0.96455727  0.04341424  0.14271219     0.14300
O1142       O  0.82350533  0.32786915  0.46064908    -0.77000
C1143       C  0.75713495  0.33332722  0.58730885     0.84000
O1144       O  0.80810847  0.22673441  0.57458788    -0.78100
O1145       O  0.68011697  0.21519624  0.57150946    -0.79600
O1146       O  0.69989636  0.24221592  0.38384908    -0.79400
O1147       O  0.79644800  0.29877707  0.38048875    -0.78000
Zn1148     Zn  0.79579788  0.29844498  0.52275959     1.55700
O1149       O  0.66894908  0.24680432  0.45775750    -0.79400
Cd1150     Cd  0.75121406  0.25030512  0.41331092     1.59700
Cd1151     Cd  0.75732397  0.20963243  0.52546574     1.59600
O1152       O  0.74895964  0.20115275  0.38389432    -0.79400
O1153       O  0.75304224  0.25383531  0.49615493    -1.89900
Cd1154     Cd  0.70901163  0.25963776  0.52135871     1.59900
O1155       O  0.74166300  0.16771928  0.46132467    -0.79400
O1156       O  0.72353319  0.30845840  0.57119314    -0.78000
C1157       C  0.83313617  0.26164577  0.58572621     0.84500
C1158       C  0.82236069  0.32663080  0.40818070     0.84200
O1159       O  0.78615005  0.33201748  0.57090660    -0.77000
C1160       C  0.66988455  0.23909073  0.40628423     0.85000
O1161       O  0.83000519  0.28891406  0.56624722    -0.77100
C1162       C  0.73917323  0.16954553  0.40823300     0.85100
C1163       C  0.68355191  0.18752908  0.58893451     0.85400
O1164       O  0.71207343  0.18354041  0.57747228    -0.79500
C1165       C  0.76432015  0.36525762  0.62476290     0.04600
C1166       C  0.78998379  0.40291114  0.60638259    -0.11500
C1167       C  0.80072392  0.43390432  0.64251891     0.02100
C1168       C  0.78277817  0.42724598  0.69406842    -0.10100
C1169       C  0.76808873  0.39088273  0.71849410     0.04600
C1170       C  0.75579554  0.35905252  0.68250387    -0.09500
H1171       H  0.80269630  0.40784327  0.56521063     0.10200
H1172       H  0.78987982  0.45185559  0.72041964     0.07700
H1173       H  0.74383729  0.33045743  0.69954958     0.07600
C1174       C  0.86683407  0.27400287  0.62250211     0.04600
C1175       C  0.86335734  0.26087881  0.67826419    -0.11500
C1176       C  0.89257957  0.28296458  0.71739809     0.02100
C1177       C  0.92313724  0.31879458  0.70025235    -0.10100
C1178       C  0.92853248  0.33036893  0.64528366     0.04600
C1179       C  0.90067453  0.30781302  0.60616123    -0.09500
H1180       H  0.83763018  0.23522496  0.69151426     0.10200
H1181       H  0.94426102  0.33827157  0.72977755     0.07700
H1182       H  0.90430993  0.31774918  0.56344672     0.07600
N1183       N  0.83214497  0.00315226  0.61868515    -0.02000
C1184       C  0.83469324  0.47228419  0.63268615     0.00600
C1185       C  0.86988459  0.48464498  0.65744585    -0.22300
C1186       C  0.88891295  0.02436385  0.65781142    -0.22500
C1187       C  0.86469942  0.03510847  0.63356177     0.00500
H1188       H  0.87909191  0.46693963  0.67824062     0.14300
H1189       H  0.91556769  0.04301931  0.67897459     0.14300
C1190       C  0.89805200  0.14160473  0.63471776     0.04600
C1191       C  0.89589597  0.14504689  0.69349465    -0.11500
C1192       C  0.87651285  0.11148521  0.72645524     0.02100
C1193       C  0.85481460  0.07636823  0.69858638    -0.10100
C1194       C  0.86662525  0.07217350  0.64599809     0.04600
C1195       C  0.88645930  0.10477083  0.61254128    -0.09500
H1196       H  0.91260184  0.17279204  0.71329097     0.10200
H1197       H  0.83734934  0.05057810  0.72268599     0.07700
H1198       H  0.89470447  0.10174194  0.57063876     0.07600
C1199       C  0.59380888  0.23592498  0.64047196     0.04600
C1200       C  0.60098488  0.20814425  0.61619114    -0.11500
C1201       C  0.61940792  0.19285056  0.64666303     0.02100
C1202       C  0.63407403  0.20810351  0.69853360    -0.10100
C1203       C  0.61737377  0.22538520  0.72957882     0.04600
C1204       C  0.59917452  0.24212170  0.69916932    -0.09500
H1205       H  0.59107840  0.19746881  0.57444340     0.10200
H1206       H  0.65265700  0.19952911  0.71823410     0.07700
H1207       H  0.58656079  0.25665120  0.72076271     0.07600
N1208       N  0.65202263  0.15771021  0.61766800    -0.02000
C1209       C  0.61948545  0.15749398  0.63052474     0.00600
C1210       C  0.59375998  0.12206861  0.65280598    -0.22300
C1211       C  0.61183854  0.10064998  0.65326906    -0.22500
C1212       C  0.64797094  0.12358219  0.63100369     0.00500
H1213       H  0.56709845  0.11453640  0.67358399     0.14300
H1214       H  0.60157728  0.07343358  0.67400007     0.14300
C1215       C  0.72456217  0.09553280  0.62462145     0.04600
C1216       C  0.73220925  0.09659773  0.68273453    -0.11500
C1217       C  0.71589410  0.11156915  0.72061130     0.02100
C1218       C  0.69596291  0.12848668  0.69762812    -0.10100
C1219       C  0.68096892  0.11890367  0.64442049     0.04600
C1220       C  0.69657177  0.10418000  0.60686579    -0.09500
H1221       H  0.74793569  0.08335277  0.69804912     0.10200
H1222       H  0.68739685  0.14511392  0.72306719     0.07700
H1223       H  0.68598417  0.09817832  0.56440148     0.07600
C1224       C  0.62738540  0.40611980  0.61582909     0.04600
C1225       C  0.59297497  0.40532524  0.60224946    -0.11500
C1226       C  0.56682246  0.40117049  0.64360485     0.02100
C1227       C  0.57463709  0.39713144  0.69843531    -0.10100
C1228       C  0.60642149  0.39354088  0.71350265     0.04600
C1229       C  0.63364777  0.39917225  0.67173513    -0.09500
H1230       H  0.58750551  0.41005497  0.55964226     0.10200
H1231       H  0.55459573  0.39588010  0.72959748     0.07700
H1232       H  0.66010734  0.40030894  0.68295413     0.07600
N1233       N  0.49754082  0.36142485  0.62091349    -0.02000
C1234       C  0.96595205  0.36414282  0.63041180     0.00600
C1235       C  0.97721237  0.40106204  0.64789463    -0.22300
C1236       C  0.51686750  0.42128400  0.64826069    -0.22500
C1237       C  0.52869136  0.39615160  0.63095476     0.00500
H1238       H  0.95883218  0.41097205  0.66464281     0.14300
H1239       H  0.53484238  0.44980140  0.66494093     0.14300
N1240       N  0.50298215  0.33557656  0.88474861    -0.02000
C1241       C  0.97154902  0.33712407  0.87045539     0.00600
C1242       C  0.98290912  0.37316662  0.84956614    -0.22300
C1243       C  0.52249436  0.39382088  0.85186486    -0.22500
C1244       C  0.53437838  0.36980199  0.87379956     0.00500
H1245       H  0.96486191  0.38202093  0.82896912     0.14900
H1246       H  0.54060943  0.42137862  0.83252294     0.14300
C1247       C  0.73030105  0.09105675  0.87439604     0.04600
C1248       C  0.73630114  0.09676052  0.81576703    -0.11500
C1249       C  0.71219033  0.10476089  0.78288490     0.02100
C1250       C  0.68084505  0.10414793  0.80967919    -0.10100
C1251       C  0.67646972  0.10258234  0.86699074     0.04600
C1252       C  0.70142158  0.09618014  0.89998853    -0.09500
H1253       H  0.75872624  0.09371856  0.79601357     0.10200
H1254       H  0.65843447  0.10474743  0.78601948     0.07700
H1255       H  0.69663823  0.09252542  0.94453952     0.07600
C1256       C  0.64147137  0.40633634  0.86467140     0.04600
C1257       C  0.64332613  0.40493728  0.80544893    -0.11500
C1258       C  0.60931239  0.38544863  0.77384037     0.02100
C1259       C  0.57463151  0.36446754  0.80276136    -0.10100
C1260       C  0.57170737  0.37369980  0.85762898     0.04600
C1261       C  0.60515264  0.39301770  0.88982757    -0.09500
H1262       H  0.67063257  0.42057764  0.78429782     0.10200
H1263       H  0.54832058  0.34711639  0.77976974     0.07700
H1264       H  0.60306581  0.39942774  0.93314915     0.07600
C1265       C  0.77375465  0.36662021  0.87288960     0.04600
C1266       C  0.80760963  0.40132908  0.88751605    -0.11500
C1267       C  0.82921843  0.42852108  0.84674363     0.02100
C1268       C  0.81626981  0.42176920  0.79256331    -0.10100
C1269       C  0.78009809  0.39094870  0.77759286     0.04600
C1270       C  0.75918718  0.36224904  0.81784535    -0.09500
H1271       H  0.81854446  0.40582960  0.92972414     0.10200
H1272       H  0.83477747  0.44237075  0.76175688     0.07700
H1273       H  0.73333921  0.33624086  0.80588761     0.07600
C1274       C  0.86503539  0.26394058  0.87062178     0.04600
C1275       C  0.90209841  0.28918327  0.89158066    -0.11500
C1276       C  0.93408215  0.30277864  0.85670495     0.02100
C1277       C  0.92907818  0.28844384  0.80278628    -0.10100
C1278       C  0.89288865  0.27246367  0.77732752     0.04600
C1279       C  0.86029774  0.25763492  0.81226483    -0.09500
H1280       H  0.90577014  0.29982858  0.93398479     0.10200
H1281       H  0.95444621  0.29754241  0.77735660     0.07700
H1282       H  0.83199338  0.24522550  0.79422965     0.07600
N1283       N  0.86083259  0.99798303  0.86664486    -0.02000
C1284       C  0.86359731  0.46647015  0.85812051     0.00600
C1285       C  0.89992302  0.47811823  0.83747719    -0.22300
C1286       C  0.91978199  0.01800850  0.83664058    -0.22500
C1287       C  0.89496658  0.02944414  0.85682728     0.00500
H1288       H  0.90970405  0.45981175  0.81997125     0.14300
H1289       H  0.94789225  0.03629936  0.81902273     0.14300
C1290       C  0.90462766  0.12768681  0.88248918     0.04600
C1291       C  0.89529093  0.13488580  0.82851114    -0.11500
C1292       C  0.88819142  0.10849118  0.78481487     0.02100
C1293       C  0.89327797  0.07697251  0.79573622    -0.10100
C1294       C  0.89899655  0.06776687  0.84881750     0.04600
C1295       C  0.90381046  0.09268541  0.89265328    -0.09500
H1296       H  0.89551966  0.16132733  0.82008616     0.10200
H1297       H  0.89116938  0.05772842  0.76269892     0.07700
H1298       H  0.90965372  0.08619151  0.93402294     0.07600
C1299       C  0.59818646  0.22593592  0.88767464     0.04600
C1300       C  0.60435739  0.23758469  0.83111525    -0.11500
C1301       C  0.61265271  0.21678120  0.79138915     0.02100
C1302       C  0.61312853  0.18363181  0.81017310    -0.10100
C1303       C  0.60953843  0.17344106  0.86600357     0.04600
C1304       C  0.60242614  0.19486565  0.90478960    -0.09500
H1305       H  0.60011696  0.26077011  0.81787128     0.10200
H1306       H  0.61536966  0.16414280  0.78150250     0.07700
H1307       H  0.59747073  0.18567386  0.94791691     0.07600
N1308       N  0.64907083  0.14391945  0.89134659    -0.02000
C1309       C  0.61450638  0.14065025  0.88232495     0.00600
C1310       C  0.58780959  0.10263043  0.87262848    -0.22300
C1311       C  0.60696365  0.08232247  0.87669335    -0.22500
C1312       C  0.64506815  0.10845977  0.88828168     0.00500
H1313       H  0.55865553  0.09139388  0.85869975     0.14300
H1314       H  0.59543887  0.05264115  0.86482099     0.14300
O1315       O  0.83258783  0.49735351  0.94851436    -0.77000
C1316       C  0.84070132  0.57026944  0.08090110     0.84000
O1317       O  0.73218664  0.91575617  0.06677435    -0.78100
O1318       O  0.71839917  0.52867958  0.07278914    -0.79600
O1319       O  0.75306929  0.54735415  0.88024844    -0.79400
O1320       O  0.80418477  0.50015202  0.87074940    -0.78000
Zn1321     Zn  0.80417788  0.49820478  0.01114140     1.55700
O1322       O  0.75257875  0.57660347  0.95923516    -0.79400
Cd1323     Cd  0.75741738  0.00064880  0.90589169     1.59700
Cd1324     Cd  0.71539418  0.94895713  0.01713686     1.59600
O1325       O  0.70645239  0.95548438  0.87579813    -0.79400
O1326       O  0.75975196  0.49871966  0.98923660    -1.89900
Cd1327     Cd  0.76466382  0.54708506  0.02198178     1.59900
O1328       O  0.67639077  0.92072065  0.95097401    -0.79400
O1329       O  0.81466786  0.57901104  0.07321554    -0.78000
C1330       C  0.76679537  0.92482619  0.07707097     0.84500
C1331       C  0.83083802  0.49831372  0.89625005     0.84200
O1332       O  0.83884096  0.54146013  0.05700732    -0.77000
C1333       C  0.74768219  0.57183901  0.90632939     0.85000
O1334       O  0.79450801  0.95460801  0.05640075    -0.77100
C1335       C  0.67690189  0.92814761  0.89889437     0.85100
C1336       C  0.68919876  0.99644775  0.08444727     0.85400
O1337       O  0.68532071  0.96466416  0.06808395    -0.79500
O1338       O  0.83126342  0.82390773  0.03496153    -0.77000
C1339       C  0.83227320  0.75596954  0.90685631     0.84000
O1340       O  0.72731289  0.80658607  0.91927937    -0.78100
O1341       O  0.71069575  0.67465970  0.92670527    -0.79600
O1342       O  0.74415230  0.70027678  0.11284851    -0.79400
O1343       O  0.80180949  0.79812648  0.11516964    -0.78000
Zn1344     Zn  0.79919982  0.79576383  0.97347703     1.55700
O1345       O  0.74784181  0.66877354  0.03875524    -0.79400
Cd1346     Cd  0.75225881  0.75184169  0.08276618     1.59700
Cd1347     Cd  0.70946305  0.75555424  0.96916748     1.59600
O1348       O  0.70271539  0.74920829  0.11236234    -0.79400
O1349       O  0.75412442  0.75220234  0.99919768    -1.89900
Cd1350     Cd  0.75810590  0.70695508  0.97273347     1.59900
O1351       O  0.66901307  0.74202833  0.03514482    -0.79400
O1352       O  0.80689430  0.72206680  0.92158505    -0.78000
C1353       C  0.76209289  0.83303698  0.91020039     0.84500
C1354       C  0.83028564  0.82347509  0.08751481     0.84200
O1355       O  0.83124370  0.78498842  0.92426490    -0.77000
C1356       C  0.74083648  0.67005396  0.09053393     0.85000
O1357       O  0.78968711  0.83103385  0.93108090    -0.77100
C1358       C  0.67106098  0.73968500  0.08828709     0.85100
C1359       C  0.68219557  0.67756311  0.91169469     0.85400
O1360       O  0.68023985  0.70771634  0.92025374    -0.79500
O1361       O  0.66656365  0.00463219  0.45650206    -0.77000
C1362       C  0.65949696  0.92716831  0.57636275     0.84000
O1363       O  0.76765698  0.58527211  0.56585053    -0.78100
O1364       O  0.77650105  0.97022427  0.56781610    -0.79600
O1365       O  0.74788954  0.95900873  0.37099046    -0.79400
O1366       O  0.69176606  0.00291293  0.37425038    -0.78000
Zn1367     Zn  0.69592976  0.00221639  0.51551854     1.55700
O1368       O  0.75050670  0.92926158  0.44776935    -0.79400
Cd1369     Cd  0.74074509  0.50327980  0.40266436     1.59700
Cd1370     Cd  0.78227191  0.55130611  0.51469374     1.59600
O1371       O  0.79198245  0.54946552  0.37413062    -0.79400
O1372       O  0.73864199  0.50216687  0.48606007    -1.89900
Cd1373     Cd  0.73366321  0.95286596  0.51286861     1.59900
O1374       O  0.82386411  0.57738486  0.45221022    -0.79400
O1375       O  0.68355700  0.91700608  0.56171953    -0.78000
C1376       C  0.73400307  0.57362162  0.58482588     0.84500
C1377       C  0.66600057  0.00395981  0.40403199     0.84200
O1378       O  0.66264605  0.95795271  0.55874025    -0.77000
C1379       C  0.75581709  0.93576923  0.39526247     0.85000
O1380       O  0.70589459  0.54271645  0.56789111    -0.77100
C1381       C  0.82303038  0.57236070  0.39941645     0.85100
C1382       C  0.80338794  0.50241582  0.58458750     0.85400
O1383       O  0.80776081  0.53416638  0.56838354    -0.79500
O1384       O  0.00368208  0.66721790  0.04651743    -0.77000
C1385       C  0.92605312  0.65921091  0.92304857     0.84000
O1386       O  0.58559049  0.76923534  0.94221718    -0.78100
O1387       O  0.97047720  0.77810104  0.93161658    -0.79600
O1388       O  0.95263156  0.74494137  0.12740260    -0.79400
O1389       O  0.00062850  0.69193084  0.12842628    -0.78000
Zn1390     Zn  0.00029208  0.69574311  0.98690564     1.55700
O1391       O  0.92614823  0.75039630  0.04893166    -0.79400
Cd1392     Cd  0.99892621  0.73985983  0.09908413     1.59700
Cd1393     Cd  0.54972544  0.78341088  0.98906218     1.59600
O1394       O  0.54387318  0.79140106  0.13002899    -0.79400
O1395       O  0.00004408  0.73880361  0.01554520    -1.89900
Cd1396     Cd  0.95171628  0.73430859  0.98573471     1.59900
O1397       O  0.57548866  0.82311746  0.05375035    -0.79400
O1398       O  0.91694141  0.68432908  0.93627413    -0.78000
C1399       C  0.57501438  0.73547748  0.92460202     0.84500
C1400       C  0.00332819  0.66691073  0.09896961     0.84200
O1401       O  0.95610571  0.66125963  0.94213225    -0.77000
C1402       C  0.93079467  0.75426830  0.10187050     0.85000
O1403       O  0.54328028  0.70727595  0.93894302    -0.77100
C1404       C  0.56896120  0.82211386  0.10611408     0.85100
C1405       C  0.50265639  0.80617583  0.91719813     0.85400
O1406       O  0.53435039  0.81105257  0.93487876    -0.79500
O1407       O  0.95300906  0.67580134  0.58088769    -0.77000
C1408       C  0.99929358  0.68414593  0.42005326     0.84000
O1409       O  0.57985027  0.78209232  0.59578328    -0.78100
O1410       O  0.55131935  0.80625336  0.40159594    -0.79600
O1411       O  0.92507071  0.76446503  0.47048631    -0.79400
O1412       O  0.91628099  0.70193345  0.58798518    -0.78000
Zn1413     Zn  0.99832471  0.71023209  0.53698963     1.55700
O1414       O  0.96243490  0.76875530  0.39910761    -0.79400
Cd1415     Cd  0.95079304  0.75205645  0.53823803     1.59700
Cd1416     Cd  0.54853320  0.80080754  0.54385321     1.59600
O1417       O  0.96633413  0.79939159  0.58533557    -0.79400
O1418       O  0.00032945  0.75597365  0.51384575    -1.89900
Cd1419     Cd  0.00345183  0.75927128  0.43102250     1.59900
O1420       O  0.52994852  0.83052069  0.59065395    -0.79400
O1421       O  0.99984022  0.71204406  0.39528676    -0.78000
C1422       C  0.57026402  0.74719060  0.60665778     0.84500
C1423       C  0.92348468  0.67519831  0.59971502     0.84200
O1424       O  0.99941500  0.68148997  0.47258152    -0.77000
C1425       C  0.93531782  0.77224949  0.41932849     0.85000
O1426       O  0.54057833  0.71948682  0.58550810    -0.77100
C1427       C  0.49789918  0.82836402  0.59966969     0.85100
C1428       C  0.57352198  0.83822461  0.42463798     0.85400
O1429       O  0.57720795  0.84134528  0.47788889    -0.79500
N1430       N  0.99753184  0.65384160  0.38880177    -0.02000
C1431       C  0.52781951  0.64892949  0.38156503     0.00600
C1432       C  0.51418645  0.61079278  0.36829410    -0.22300
C1433       C  0.97451001  0.59251447  0.36947725    -0.22500
C1434       C  0.96488336  0.61996601  0.38323288     0.00500
H1435       H  0.53093479  0.59860485  0.35285219     0.14300
H1436       H  0.95512225  0.56373809  0.35477905     0.14300
C1437       C  0.77476719  0.91829907  0.36254083     0.04600
C1438       C  0.77065274  0.91333957  0.30359560    -0.11500
C1439       C  0.78898119  0.89637880  0.27428727     0.02100
C1440       C  0.80817553  0.88216894  0.30609065    -0.10100
C1441       C  0.82007722  0.89510206  0.35991023     0.04600
C1442       C  0.80216298  0.91178083  0.38939857    -0.09500
H1443       H  0.75420307  0.92335084  0.28118457     0.10200
H1444       H  0.81821432  0.86443154  0.28722880     0.07700
H1445       H  0.80988687  0.92010879  0.43250997     0.07600
C1446       C  0.85957591  0.59123776  0.36702627     0.04600
C1447       C  0.85935271  0.59321490  0.30788363    -0.11500
C1448       C  0.89405216  0.60954625  0.27764744     0.02100
C1449       C  0.92839260  0.62698886  0.30806557    -0.10100
C1450       C  0.92890252  0.61758273  0.36351160     0.04600
C1451       C  0.89456308  0.60103980  0.39401350    -0.09500
H1452       H  0.83240250  0.58046987  0.28577261     0.10200
H1453       H  0.95563765  0.64304703  0.28676590     0.07700
H1454       H  0.89486339  0.59446950  0.43768730     0.07600
N1455       N  0.85201291  0.85842262  0.38110462    -0.02000
C1456       C  0.85303864  0.89220995  0.38063060     0.00600
C1457       C  0.89087485  0.92134782  0.37727970    -0.22300
C1458       C  0.91310035  0.90396400  0.37850645    -0.22500
C1459       C  0.88797824  0.86489914  0.38286029     0.00500
H1460       H  0.90102699  0.95130101  0.36915155     0.14300
H1461       H  0.94368220  0.91795452  0.37176735     0.14300
C1462       C  0.91809429  0.78879456  0.38205653     0.04600
C1463       C  0.91786987  0.78320867  0.32349807    -0.11500
C1464       C  0.90495049  0.80145582  0.28675676     0.02100
C1465       C  0.89055306  0.82358718  0.31060243    -0.10100
C1466       C  0.89662482  0.83464980  0.36618961     0.04600
C1467       C  0.90896317  0.81607674  0.40289940    -0.09500
H1468       H  0.92871588  0.76555421  0.30698284     0.10200
H1469       H  0.87571028  0.83426503  0.28563914     0.07700
H1470       H  0.91235680  0.82346275  0.44678135     0.07600
C1471       C  0.59032534  0.87241598  0.38718387     0.04600
C1472       C  0.59555604  0.86777722  0.32953161    -0.11500
C1473       C  0.59949089  0.89542515  0.29008552     0.02100
C1474       C  0.59603870  0.92651236  0.30914978    -0.10100
C1475       C  0.59403954  0.93339373  0.36541225     0.04600
C1476       C  0.59176228  0.90662787  0.40497013    -0.09500
H1477       H  0.59522904  0.84211014  0.31548182     0.10200
H1478       H  0.59555351  0.94668784  0.28004068     0.07700
H1479       H  0.58857558  0.91122882  0.44868997     0.07600
N1480       N  0.63396114  0.00316259  0.37961286    -0.02000
C1481       C  0.62983371  0.53420173  0.37718993     0.00600
C1482       C  0.59139436  0.52199207  0.36974678    -0.22300
C1483       C  0.57185238  0.98215131  0.37137858    -0.22500
C1484       C  0.59903935  0.97142312  0.37971172     0.00500
H1485       H  0.57931037  0.53973257  0.35919613     0.14300
H1486       H  0.54180850  0.96327462  0.36248630     0.14300
C1487       C  0.63472644  0.72321423  0.37175643     0.04600
C1488       C  0.63803629  0.72612081  0.31295239    -0.11500
C1489       C  0.60536419  0.70762376  0.27906790     0.02100
C1490       C  0.56925868  0.68867833  0.30537491    -0.10100
C1491       C  0.56564395  0.68044425  0.36208721     0.04600
C1492       C  0.59834260  0.69885483  0.39597586    -0.09500
H1493       H  0.66609155  0.74102211  0.29383264     0.10200
H1494       H  0.54323151  0.67659324  0.28096018     0.07700
H1495       H  0.59578973  0.69277840  0.44022911     0.07600
C1496       C  0.71968686  0.63400618  0.37343472     0.04600
C1497       C  0.72765209  0.63570248  0.31544058    -0.11500
C1498       C  0.70279961  0.60575728  0.27932806     0.02100
C1499       C  0.66886377  0.57565884  0.30183905    -0.10100
C1500       C  0.66185358  0.57172614  0.35871037     0.04600
C1501       C  0.68757702  0.60063072  0.39508104    -0.09500
H1502       H  0.75263251  0.66062246  0.29864621     0.10200
H1503       H  0.64732870  0.55382607  0.27510460     0.07700
H1504       H  0.68138539  0.59813628  0.43933026     0.07600
C1505       C  0.77794902  0.90323991  0.11490535     0.04600
C1506       C  0.77007032  0.90148982  0.17284342    -0.11500
C1507       C  0.79385453  0.89700515  0.21170812     0.02100
C1508       C  0.82610581  0.89602862  0.19060268    -0.10100
C1509       C  0.83223147  0.89434222  0.13408737     0.04600
C1510       C  0.80775884  0.89726975  0.09607768    -0.09500
H1511       H  0.74756792  0.90646619  0.18730646     0.10200
H1512       H  0.84798644  0.89736410  0.21785981     0.07700
H1513       H  0.81412558  0.89859581  0.05193379     0.07600
C1514       C  0.87360595  0.59075909  0.11956812     0.04600
C1515       C  0.86842322  0.59725310  0.17629368    -0.11500
C1516       C  0.89656030  0.60290481  0.21638279     0.02100
C1517       C  0.92810069  0.59959737  0.19856010    -0.10100
C1518       C  0.93501376  0.59636146  0.14291635     0.04600
C1519       C  0.90833178  0.59294532  0.10318815    -0.09500
H1520       H  0.84200338  0.59566035  0.18927709     0.10200
H1521       H  0.94838949  0.59974088  0.22801721     0.07700
H1522       H  0.91328077  0.58910499  0.05981230     0.07600
N1523       N  0.86172976  0.85444627  0.11453641    -0.02000
C1524       C  0.86472486  0.88923410  0.11710049     0.00600
C1525       C  0.90283650  0.91720682  0.12077611    -0.22300
C1526       C  0.92356632  0.89846403  0.11773641    -0.22500
C1527       C  0.89745145  0.85952349  0.11278414     0.00500
H1528       H  0.91414469  0.94731786  0.12952897     0.14300
H1529       H  0.95394319  0.91135403  0.12539573     0.14300
C1530       C  0.91491530  0.77513594  0.13388751     0.04600
C1531       C  0.91320067  0.77374628  0.19319217    -0.11500
C1532       C  0.90842546  0.80107778  0.22405205     0.02100
C1533       C  0.90823760  0.83080112  0.19417273    -0.10100
C1534       C  0.90525867  0.83030756  0.13669991     0.04600
C1535       C  0.90830769  0.80225389  0.10599392    -0.09500
H1536       H  0.91661575  0.75216906  0.21467398     0.10200
H1537       H  0.91002006  0.85532483  0.21529793     0.07700
H1538       H  0.90824274  0.80330858  0.06089755     0.07600
C1539       C  0.58876871  0.85847475  0.13901424     0.04600
C1540       C  0.60149997  0.89380579  0.11130506    -0.11500
C1541       C  0.61793420  0.92825632  0.14142993     0.02100
C1542       C  0.62381871  0.92760642  0.19836327    -0.10100
C1543       C  0.60568193  0.89308683  0.22857135     0.04600
C1544       C  0.58929206  0.85825993  0.19825912    -0.09500
H1545       H  0.59699190  0.89439567  0.06690681     0.10200
H1546       H  0.63891114  0.95487770  0.21992430     0.07700
H1547       H  0.57542398  0.83124632  0.22030580     0.07600
N1548       N  0.65737706  0.99623633  0.11041795    -0.02000
C1549       C  0.65329945  0.52742595  0.11482377     0.00600
C1550       C  0.61529419  0.51531998  0.12613554    -0.22300
C1551       C  0.59607385  0.97572264  0.12837264    -0.22500
C1552       C  0.62276441  0.96452853  0.11835962     0.00500
H1553       H  0.60380825  0.53328654  0.13880939     0.14300
H1554       H  0.56704984  0.95757024  0.14301214     0.14300
C1555       C  0.63549437  0.72029082  0.12330457     0.04600
C1556       C  0.63726995  0.72751901  0.18169039    -0.11500
C1557       C  0.60735006  0.70197653  0.21744934     0.02100
C1558       C  0.57787784  0.66808769  0.19435450    -0.10100
C1559       C  0.57313423  0.66239768  0.13744204     0.04600
C1560       C  0.60170847  0.68873769  0.10119603    -0.09500
H1561       H  0.66215175  0.75229561  0.19893296     0.10200
H1562       H  0.55670850  0.64571655  0.22077481     0.07700
H1563       H  0.59872871  0.68332384  0.05675352     0.07600
C1564       C  0.72541089  0.63482728  0.12538297     0.04600
C1565       C  0.70215140  0.59826647  0.10083791    -0.11500
C1566       C  0.68457099  0.56530208  0.13436768     0.02100
C1567       C  0.69225151  0.56876616  0.19118388    -0.10100
C1568       C  0.70958774  0.60467461  0.21788134     0.04600
C1569       C  0.72751007  0.63778879  0.18436752    -0.09500
H1570       H  0.69624578  0.59566837  0.05653575     0.10200
H1571       H  0.68052195  0.54263425  0.21540579     0.07700
H1572       H  0.74128169  0.66579867  0.20386590     0.07600
N1573       N  0.00426605  0.63571236  0.12364203    -0.02000
C1574       C  0.53498516  0.63102532  0.12013154     0.00600
C1575       C  0.52274298  0.59248166  0.12794160    -0.22300
C1576       C  0.98312952  0.57338674  0.13287509    -0.22500
C1577       C  0.97265709  0.60096710  0.12805935     0.00500
H1578       H  0.54075592  0.58018346  0.13486917     0.14300
H1579       H  0.96455740  0.54341427  0.14271212     0.14300
O1580       O  0.82350529  0.82786908  0.46064909    -0.77000
C1581       C  0.75713485  0.83332716  0.58730883     0.84000
O1582       O  0.80810858  0.72673451  0.57458787    -0.78100
O1583       O  0.68011690  0.71519618  0.57150946    -0.79600
O1584       O  0.69989641  0.74221584  0.38384906    -0.79400
O1585       O  0.79644801  0.79877699  0.38048875    -0.78000
Zn1586     Zn  0.79579783  0.79844494  0.52275960     1.55700
O1587       O  0.66894914  0.74680425  0.45775748    -0.79400
Cd1588     Cd  0.75121413  0.75030505  0.41331092     1.59700
Cd1589     Cd  0.75732404  0.70963240  0.52546578     1.59600
O1590       O  0.74895969  0.70115274  0.38389426    -0.79400
O1591       O  0.75304228  0.75383522  0.49615493    -1.89900
Cd1592     Cd  0.70901166  0.75963768  0.52135871     1.59900
O1593       O  0.74166306  0.66771930  0.46132465    -0.79400
O1594       O  0.72353310  0.80845829  0.57119314    -0.78000
C1595       C  0.83313626  0.76164588  0.58572618     0.84500
C1596       C  0.82236066  0.82663073  0.40818071     0.84200
O1597       O  0.78614998  0.83201746  0.57090659    -0.77000
C1598       C  0.66988458  0.73909064  0.40628423     0.85000
O1599       O  0.83000526  0.78891415  0.56624717    -0.77100
C1600       C  0.73917322  0.66954553  0.40823299     0.85100
C1601       C  0.68355185  0.68752903  0.58893449     0.85400
O1602       O  0.71207339  0.68354037  0.57747224    -0.79500
C1603       C  0.76432000  0.86525758  0.62476284     0.04600
C1604       C  0.78998369  0.90291113  0.60638252    -0.11500
C1605       C  0.80072386  0.93390431  0.64251885     0.02100
C1606       C  0.78277821  0.92724599  0.69406843    -0.10100
C1607       C  0.76808880  0.89088272  0.71849407     0.04600
C1608       C  0.75579544  0.85905250  0.68250382    -0.09500
H1609       H  0.80269622  0.90784324  0.56521063     0.10200
H1610       H  0.78987991  0.95185555  0.72041963     0.07700
H1611       H  0.74383712  0.83045737  0.69954949     0.07600
C1612       C  0.86683409  0.77400294  0.62250213     0.04600
C1613       C  0.86335733  0.76087889  0.67826421    -0.11500
C1614       C  0.89257955  0.78296459  0.71739811     0.02100
C1615       C  0.92313726  0.81879461  0.70025237    -0.10100
C1616       C  0.92853252  0.83036896  0.64528367     0.04600
C1617       C  0.90067460  0.80781306  0.60616123    -0.09500
H1618       H  0.83763005  0.73522503  0.69151430     0.10200
H1619       H  0.94426096  0.83827159  0.72977755     0.07700
H1620       H  0.90431006  0.81774919  0.56344672     0.07600
N1621       N  0.83214496  0.50315228  0.61868522    -0.02000
C1622       C  0.83469324  0.97228420  0.63268612     0.00600
C1623       C  0.86988459  0.98464498  0.65744584    -0.22300
C1624       C  0.88891296  0.52436386  0.65781139    -0.22500
C1625       C  0.86469940  0.53510845  0.63356175     0.00500
H1626       H  0.87909189  0.96693957  0.67824059     0.14300
H1627       H  0.91556768  0.54301929  0.67897446     0.14300
C1628       C  0.89805206  0.64160475  0.63471777     0.04600
C1629       C  0.89589610  0.64504694  0.69349468    -0.11500
C1630       C  0.87651293  0.61148524  0.72645526     0.02100
C1631       C  0.85481469  0.57636828  0.69858636    -0.10100
C1632       C  0.86662531  0.57217353  0.64599808     0.04600
C1633       C  0.88645938  0.60477087  0.61254130    -0.09500
H1634       H  0.91260197  0.67279208  0.71329098     0.10200
H1635       H  0.83734940  0.55057811  0.72268599     0.07700
H1636       H  0.89470452  0.60174198  0.57063874     0.07600
C1637       C  0.59380899  0.73592504  0.64047194     0.04600
C1638       C  0.60098484  0.70814419  0.61619119    -0.11500
C1639       C  0.61940784  0.69285045  0.64666305     0.02100
C1640       C  0.63407402  0.70810345  0.69853356    -0.10100
C1641       C  0.61737386  0.72538521  0.72957880     0.04600
C1642       C  0.59917473  0.74212183  0.69916930    -0.09500
H1643       H  0.59107827  0.69746873  0.57444348     0.10200
H1644       H  0.65265698  0.69952902  0.71823401     0.07700
H1645       H  0.58656110  0.75665143  0.72076269     0.07600
N1646       N  0.65202260  0.65771015  0.61766801    -0.02000
C1647       C  0.61948539  0.65749388  0.63052472     0.00600
C1648       C  0.59375997  0.62206851  0.65280601    -0.22300
C1649       C  0.61183857  0.60064991  0.65326908    -0.22500
C1650       C  0.64797097  0.62358216  0.63100373     0.00500
H1651       H  0.56709845  0.61453629  0.67358404     0.14300
H1652       H  0.60157732  0.57343352  0.67400011     0.14300
C1653       C  0.72456228  0.59553286  0.62462155     0.04600
C1654       C  0.73220937  0.59659784  0.68273460    -0.11500
C1655       C  0.71589421  0.61156925  0.72061138     0.02100
C1656       C  0.69596298  0.62848673  0.69762816    -0.10100
C1657       C  0.68096898  0.61890369  0.64442057     0.04600
C1658       C  0.69657189  0.60418008  0.60686585    -0.09500
H1659       H  0.74793583  0.58335285  0.69804923     0.10200
H1660       H  0.68739688  0.64511398  0.72306721     0.07700
H1661       H  0.68598439  0.59817846  0.56440157     0.07600
C1662       C  0.62738538  0.90611973  0.61582910     0.04600
C1663       C  0.59297496  0.90532519  0.60224947    -0.11500
C1664       C  0.56682250  0.90117052  0.64360486     0.02100
C1665       C  0.57463708  0.89713138  0.69843530    -0.10100
C1666       C  0.60642152  0.89354085  0.71350264     0.04600
C1667       C  0.63364777  0.89917219  0.67173513    -0.09500
H1668       H  0.58750552  0.91005491  0.55964230     0.10200
H1669       H  0.55459576  0.89588005  0.72959742     0.07700
H1670       H  0.66010737  0.90030890  0.68295414     0.07600
N1671       N  0.49754089  0.86142491  0.62091344    -0.02000
C1672       C  0.96595212  0.86414291  0.63041184     0.00600
C1673       C  0.97721242  0.90106211  0.64789464    -0.22300
C1674       C  0.51686746  0.92128402  0.64826065    -0.22500
C1675       C  0.52869137  0.89615165  0.63095475     0.00500
H1676       H  0.95883216  0.91097208  0.66464289     0.14300
H1677       H  0.53484232  0.94980147  0.66494091     0.14300
N1678       N  0.50298219  0.83557663  0.88474864    -0.02000
C1679       C  0.97154903  0.83712411  0.87045540     0.00600
C1680       C  0.98290919  0.87316668  0.84956620    -0.22300
C1681       C  0.52249440  0.89382095  0.85186484    -0.22500
C1682       C  0.53437838  0.86980199  0.87379956     0.00500
H1683       H  0.96486194  0.88202104  0.82896921     0.14900
H1684       H  0.54060945  0.92137861  0.83252295     0.14300
C1685       C  0.73030106  0.59105674  0.87439605     0.04600
C1686       C  0.73630111  0.59676049  0.81576708    -0.11500
C1687       C  0.71219036  0.60476093  0.78288493     0.02100
C1688       C  0.68084511  0.60414803  0.80967925    -0.10100
C1689       C  0.67646974  0.60258238  0.86699076     0.04600
C1690       C  0.70142162  0.59618019  0.89998855    -0.09500
H1691       H  0.75872626  0.59371855  0.79601358     0.10200
H1692       H  0.65843454  0.60474765  0.78601950     0.07700
H1693       H  0.69663833  0.59252553  0.94453955     0.07600
C1694       C  0.64147137  0.90633624  0.86467140     0.04600
C1695       C  0.64332615  0.90493724  0.80544893    -0.11500
C1696       C  0.60931242  0.88544866  0.77384038     0.02100
C1697       C  0.57463154  0.86446754  0.80276137    -0.10100
C1698       C  0.57170739  0.87369978  0.85762897     0.04600
C1699       C  0.60515265  0.89301763  0.88982757    -0.09500
H1700       H  0.67063262  0.92057756  0.78429784     0.10200
H1701       H  0.54832063  0.84711636  0.77976977     0.07700
H1702       H  0.60306583  0.89942769  0.93314913     0.07600
C1703       C  0.77375464  0.86662027  0.87288955     0.04600
C1704       C  0.80760956  0.90132914  0.88751608    -0.11500
C1705       C  0.82921842  0.92852117  0.84674365     0.02100
C1706       C  0.81626986  0.92176923  0.79256332    -0.10100
C1707       C  0.78009821  0.89094873  0.77759278     0.04600
C1708       C  0.75918719  0.86224907  0.81784527    -0.09500
H1709       H  0.81854435  0.90582964  0.92972418     0.10200
H1710       H  0.83477760  0.94237084  0.76175681     0.07700
H1711       H  0.73333927  0.83624097  0.80588752     0.07600
C1712       C  0.86503537  0.76394050  0.87062185     0.04600
C1713       C  0.90209841  0.78918326  0.89158070    -0.11500
C1714       C  0.93408216  0.80277868  0.85670497     0.02100
C1715       C  0.92907816  0.78844386  0.80278632    -0.10100
C1716       C  0.89288864  0.77246372  0.77732755     0.04600
C1717       C  0.86029774  0.75763493  0.81226491    -0.09500
H1718       H  0.90577016  0.79982860  0.93398480     0.10200
H1719       H  0.95444619  0.79754238  0.77735662     0.07700
H1720       H  0.83199331  0.74522545  0.79422972     0.07600
N1721       N  0.86083251  0.49798297  0.86664480    -0.02000
C1722       C  0.86359732  0.96647020  0.85812055     0.00600
C1723       C  0.89992303  0.97811823  0.83747718    -0.22300
C1724       C  0.91978196  0.51800849  0.83664056    -0.22500
C1725       C  0.89496651  0.52944409  0.85682725     0.00500
H1726       H  0.90970397  0.95981174  0.81997124     0.14300
H1727       H  0.94789217  0.53629938  0.81902276     0.14300
C1728       C  0.90462775  0.62768683  0.88248916     0.04600
C1729       C  0.89529097  0.63488583  0.82851116    -0.11500
C1730       C  0.88819144  0.60849119  0.78481490     0.02100
C1731       C  0.89327805  0.57697255  0.79573621    -0.10100
C1732       C  0.89899651  0.56776684  0.84881752     0.04600
C1733       C  0.90381044  0.59268539  0.89265332    -0.09500
H1734       H  0.89551971  0.66132734  0.82008622     0.10200
H1735       H  0.89116956  0.55772854  0.76269892     0.07700
H1736       H  0.90965360  0.58619145  0.93402298     0.07600
C1737       C  0.59818639  0.72593584  0.88767462     0.04600
C1738       C  0.60435731  0.73758460  0.83111522    -0.11500
C1739       C  0.61265274  0.71678119  0.79138914     0.02100
C1740       C  0.61312860  0.68363183  0.81017310    -0.10100
C1741       C  0.60953841  0.67344103  0.86600356     0.04600
C1742       C  0.60242608  0.69486558  0.90478959    -0.09500
H1743       H  0.60011680  0.76076996  0.81787122     0.10200
H1744       H  0.61536980  0.66414286  0.78150251     0.07700
H1745       H  0.59747063  0.68567378  0.94791690     0.07600
N1746       N  0.64907080  0.64391942  0.89134660    -0.02000
C1747       C  0.61450633  0.64065022  0.88232488     0.00600
C1748       C  0.58780959  0.60263042  0.87262825    -0.22300
C1749       C  0.60696363  0.58232245  0.87669328    -0.22500
C1750       C  0.64506812  0.60845975  0.88828169     0.00500
H1751       H  0.55865554  0.59139387  0.85869938     0.14300
H1752       H  0.59543885  0.55264112  0.86482103     0.14300
loop_ 
_geom_bond_atom_site_label_1 
_geom_bond_atom_site_label_2 
_geom_bond_distance 
_geom_bond_site_symmetry_2 
_ccdc_geom_bond_type 
O1           C17   1.258       .  A
O1           Zn7   1.899   1_556  S
C2           O18   1.263       .  A
C2           O15   1.282       .  A
C2          C200   1.487       .  S
O3           C16   1.280       .  A
O3          Cd10   2.147       .  S
O4          C460   1.273   1_545  A
O4          Cd13   2.032       .  S
O5           C19   1.276       .  A
O5         Cd447   2.076       .  S
O6           C17   1.275   1_545  A
O6         Cd447   2.077       .  S
Zn7          O18   1.938   1_565  S
Zn7         O458   1.936       .  S
Zn7          O12   1.884   1_554  S
O8           C19   1.284       .  A
O8          Cd13   2.129   1_556  S
Cd9          O11   2.076       .  S
Cd9         O443   2.076       .  S
Cd9         O444   2.077       .  S
Cd9         O450   2.006       .  S
Cd10         O14   2.121   1_554  S
Cd10         O23   2.034       .  S
Cd10        O450   2.019   1_554  S
O11          C21   1.275       .  A
O12         Cd13   2.017   1_566  S
O12        Cd447   2.006   1_565  S
O12        Cd448   2.019   1_556  S
Cd13         O15   2.154       .  S
O14          C21   1.284       .  A
C16          O20   1.262       .  A
C16         C191   1.480       .  S
C17         N407   1.409       .  S
C19         C371   1.497       .  S
O20        Zn445   1.936       .  S
C21         C380   1.495       .  S
C22          O23   1.273       .  A
C22         O442   1.273       .  A
C22         N234   1.424       .  S
O24          C40   1.262       .  A
O24         Zn30   1.915   1_554  S
C25          O41   1.263       .  A
C25          O38   1.280       .  A
C25         C398   1.476       .  S
O26          C39   1.286       .  A
O26         Cd33   2.171       .  S
O27          C45   1.269       .  A
O27         Cd36   2.020       .  S
O28          C42   1.275       .  A
O28         Cd32   2.070       .  S
O29          C40   1.276       .  A
O29         Cd32   2.084       .  S
Zn30         O41   1.954       .  S
Zn30         O43   1.943       .  S
Zn30         O35   1.889       .  S
O31          C42   1.280       .  A
O31         Cd36   2.104   1_554  S
Cd32         O34   2.075       .  S
Cd32         O35   2.006   1_554  S
Cd33         O37   2.138   1_556  S
Cd33         O46   2.049       .  S
Cd33         O35   2.014       .  S
O34          C44   1.276       .  A
O35         Cd36   2.013       .  S
Cd36         O38   2.133       .  S
O37          C44   1.285       .  A
C39          O43   1.264       .  A
C39         C389   1.492       .  S
C40         N209   1.414       .  S
C42         C250   1.491       .  S
C44         C241   1.500       .  S
C45          O46   1.275       .  A
C45         N432   1.430       .  S
O47          C63   1.259       .  A
O47         Zn53   1.885       .  S
C48          O64   1.259       .  A
C48          O61   1.279       .  A
C48         C348   1.481       .  S
O49          C62   1.278       .  A
O49         Cd56   2.130       .  S
O50         C506   1.269       .  A
O50         Cd59   2.004       .  S
O51          C65   1.277       .  A
O51        Cd493   2.089       .  S
O52          C63   1.280       .  A
O52        Cd493   2.090       .  S
Zn53         O64   1.914       .  S
Zn53        O504   1.934       .  S
Zn53        O496   1.865       .  S
O54          C65   1.283       .  A
O54         Cd59   2.109       .  S
Cd55         O57   2.085       .  S
Cd55        O489   2.089   1_545  S
Cd55        O490   2.090       .  S
Cd55         O58   2.002       .  S
Cd56         O60   2.097       .  S
Cd56         O69   1.984       .  S
Cd56         O58   1.999       .  S
O57          C67   1.277       .  A
O58        Zn491   1.865       .  S
O58        Cd497   2.005   1_545  S
Cd59         O61   2.149       .  S
Cd59        O496   2.005       .  S
O60          C67   1.280       .  A
C62          O66   1.259       .  A
C62         C339   1.474       .  S
C63         N166   1.409       .  S
C65         C123   1.496       .  S
O66        Zn491   1.934       .  S
C67         C132   1.494       .  S
C68          O69   1.265       .  A
C68         O488   1.269   1_545  A
C68         N307   1.412       .  S
O70          C86   1.259       .  A
O70         Zn76   1.888   1_554  S
C71          O87   1.263       .  A
C71          O84   1.280       .  A
C71         C414   1.485       .  S
O72          C85   1.276       .  A
O72         Cd79   2.125       .  S
O73         C967   1.270       .  A
O73         Cd82   2.012       .  S
O74          C88   1.279       .  A
O74         Cd78   2.094       .  S
O75          C86   1.280       .  A
O75         Cd78   2.095       .  S
Zn76         O87   1.945       .  S
Zn76        O965   1.934       .  S
Zn76         O81   1.872   1_556  S
O77          C88   1.282       .  A
O77         Cd82   2.109   1_554  S
Cd78        O956   2.092       .  S
Cd78         O81   2.006       .  S
Cd79         O83   2.092   1_556  S
Cd79         O92   2.009       .  S
Cd79        O957   2.010   1_556  S
O80          C90   1.277       .  A
O80        Cd954   2.092   1_455  S
O81         Cd82   2.004   1_554  S
O81        Cd955   2.010   1_554  S
Cd82         O84   2.143       .  S
O83          C90   1.280       .  A
C85          O89   1.261       .  A
C85         C423   1.472       .  S
C86         N259   1.412       .  S
C88         C216   1.500       .  S
O89        Zn952   1.934       .  S
C90         C225   1.494       .  S
C91          O92   1.269       .  A
C91         O949   1.270   1_455  A
C91         N364   1.417       .  S
O93         C109   1.264       .  A
O93         Zn99   1.958       .  S
C94         O110   1.266       .  A
C94         O107   1.266       .  A
C94         N116   1.404       .  S
O95         C108   1.287       .  A
O95        Cd102   2.170       .  S
O96         C114   1.269       .  A
O96        Cd981   2.037       .  S
O97         C111   1.283       .  A
O97        Cd101   2.126       .  S
O98         C109   1.284       .  A
O98        Cd101   2.152       .  S
Zn99        O110   1.943       .  S
Zn99        O988   1.945       .  S
Zn99        O104   1.893       .  S
O100        C111   1.269       .  A
O100       Cd105   2.033       .  S
Cd101       O103   2.026       .  S
Cd101       O104   2.013       .  S
Cd102       O106   2.039       .  S
Cd102       O115   2.151       .  S
Cd102       O980   2.010       .  S
O103        C989   1.270       .  A
O104       Cd105   1.992       .  S
O104       Cd978   2.010       .  S
Cd105       O107   2.025       .  S
Cd105       O972   2.037       .  S
O106        C113   1.272   1_455  A
C108        O112   1.264       .  A
C108        C323   1.488       .  S
C109        C314   1.484       .  S
C111        C148   1.486       .  S
O112       Zn975   1.945   1_455  S
C113        O979   1.270       .  A
C113        N357   1.434       .  S
C114        O115   1.285       .  A
C114        C157   1.495       .  S
N116        C120   1.347       .  A
N116        C993   1.346       .  A
C117        C177   1.489       .  S
C117        N992   1.346   1_455  A
C117        C118   1.385       .  A
C118        C995   1.388   1_455  A
C118        H121   1.082       .  S
C119        C120   1.386       .  A
C119        C994   1.388       .  A
C119        H122   1.082       .  S
C120        C136   1.488       .  S
C123        C124   1.426       .  A
C123        C128   1.418       .  A
C124        C125   1.420       .  A
C124        H129   1.082       .  S
C125        C193   1.513       .  S
C125        C126   1.403       .  A
C126        C127   1.385       .  A
C126        H130   1.082       .  S
C127        C142   1.483       .  S
C127        C128   1.401       .  A
C128        H131   1.084       .  S
C132        C133   1.422       .  A
C132        C137   1.421       .  A
C133        C134   1.413       .  A
C133        H138   1.082       .  S
C134        C202   1.506       .  S
C134        C135   1.405       .  A
C135        C136   1.388       .  A
C135        H139   1.084       .  S
C136        C137   1.405       .  A
C137        H140   1.084       .  S
N141        C282   1.400       .  S
N141        C145   1.343       .  A
N141        C142   1.344       .  A
C142        C143   1.385       .  A
C143        C144   1.392       .  A
C143        H146   1.082       .  S
C144        C145   1.385       .  A
C144        H147   1.082       .  S
C145        C152   1.483       .  S
C148        C149   1.422       .  A
C148        C153   1.416       .  A
C149        C150   1.410       .  A
C149        H154   1.081       .  S
C150        C218   1.512       .  S
C150        C151   1.408       .  A
C151        C152   1.388       .  A
C151        H155   1.082       .  S
C152        C153   1.404       .  A
C153        H156   1.084       .  S
C157        C158   1.425       .  A
C157        C162   1.417       .  A
C158        C159   1.413       .  A
C158        H163   1.082       .  S
C159        C229   1.507       .  S
C159        C160   1.406       .  A
C160        C161   1.388       .  A
C160        H164   1.083       .  S
C161        C170   1.483       .  S
C161        C162   1.409       .  A
C162        H165   1.083       .  S
N166        C170   1.347       .  A
N166        C605   1.346       .  A
C167        C186   1.481       .  S
C167        N604   1.346       .  A
C167        C168   1.386       .  A
C168        C607   1.391   1_545  A
C168        H171   1.082       .  S
C169        C170   1.385       .  A
C169        C606   1.391       .  A
C169        H172   1.082       .  S
C173        C284   1.485       .  S
C173        C174   1.417       .  A
C173        C178   1.418       .  A
C174        C175   1.405       .  A
C174        H179   1.082       .  S
C175        C243   1.503       .  S
C175        C176   1.410       .  A
C176        C177   1.392       .  A
C176        H180   1.083       .  S
C177        C178   1.405       .  A
C178        H181   1.084       .  S
C182        C286   1.495       .  S
C182        C183   1.422       .  A
C182        C187   1.418       .  A
C183        C184   1.413       .  A
C183        H188   1.083       .  S
C184        C254   1.503       .  S
C184        C185   1.405       .  A
C185        C186   1.386       .  A
C185        H189   1.083       .  S
C186        C187   1.408       .  A
C187        H190   1.084       .  S
C191        C192   1.419       .  A
C191        C196   1.415       .  A
C192        C193   1.418       .  A
C192        H197   1.082       .  S
C193        C194   1.416       .  A
C194        C195   1.385       .  A
C194        H198   1.081       .  S
C195        C210   1.484       .  S
C195        C196   1.396       .  A
C196        H199   1.084       .  S
C200        C201   1.420       .  A
C200        C205   1.416       .  A
C201        C202   1.420       .  A
C201        H206   1.082       .  S
C202        C203   1.412       .  A
C203        C204   1.382       .  A
C203        H207   1.082       .  S
C204        C263   1.480       .  S
C204        C205   1.396       .  A
C205        H208   1.085       .  S
N209        C213   1.353       .  A
N209        C210   1.349       .  A
C210        C211   1.381       .  A
C211        C212   1.385       .  A
C211        H214   1.082       .  S
C212        C213   1.389       .  A
C212        H215   1.082       .  S
C213        C220   1.484       .  S
C216        C217   1.425       .  A
C216        C221   1.421       .  A
C217        C218   1.418       .  A
C217        H222   1.081       .  S
C218        C219   1.404       .  A
C219        C220   1.384       .  A
C219        H223   1.080       .  S
C220        C221   1.405       .  A
C221        H224   1.083       .  S
C225        C226   1.417       .  A
C225        C230   1.422       .  A
C226        C227   1.401       .  A
C226        H231   1.084       .  S
C227        C238   1.486       .  S
C227        C228   1.390       .  A
C228        C229   1.407       .  A
C228        H232   1.083       .  S
C229        C230   1.415       .  A
C230        H233   1.082       .  S
N234        C238   1.353       .  A
N234        C673   1.354       .  A
C235        C252   1.486       .  S
C235        N672   1.354   1_545  A
C235        C236   1.384       .  A
C236        C675   1.383   1_545  A
C236        H239   1.082       .  S
C237        C238   1.384       .  A
C237        C674   1.383       .  A
C237        H240   1.082       .  S
C241        C242   1.425       .  A
C241        C246   1.421       .  A
C242        C243   1.417       .  A
C242        H247   1.082       .  S
C243        C244   1.399       .  A
C244        C245   1.382       .  A
C244        H248   1.083       .  S
C245        C260   1.480       .  S
C245        C246   1.409       .  A
C246        H249   1.083       .  S
C250        C251   1.418       .  A
C250        C255   1.419       .  A
C251        C252   1.406       .  A
C251        H256   1.083       .  S
C252        C253   1.390       .  A
C253        C254   1.406       .  A
C253        H257   1.084       .  S
C254        C255   1.410       .  A
C255        H258   1.082       .  S
N259        C263   1.345       .  A
N259       C1136   1.350       .  A
C260       N1135   1.350       .  A
C260        C261   1.389       .  A
C261       C1138   1.389   1_455  A
C261        H264   1.082       .  S
C262        C263   1.382       .  A
C262       C1137   1.389       .  A
C262        H265   1.082       .  S
O266        C282   1.260       .  A
O266       Zn272   1.884       .  S
C267        O283   1.262       .  A
C267        O280   1.277       .  A
C267        C289   1.473       .  S
O268        C281   1.283       .  A
O268       Cd275   2.160       .  S
O269        C287   1.266       .  A
O269       Cd278   1.982       .  S
O270        C284   1.273       .  A
O270       Cd274   2.059       .  S
O271        C282   1.272       .  A
O271       Cd274   2.048       .  S
Zn272       O283   1.960       .  S
Zn272       O285   1.923       .  S
Zn272       O277   1.872       .  S
O273        C284   1.278       .  A
O273       Cd278   2.095       .  S
Cd274       O276   2.062       .  S
Cd274       O277   1.992       .  S
Cd275       O279   2.131       .  S
Cd275       O288   2.017       .  S
Cd275       O277   2.008       .  S
O276        C286   1.274       .  A
O277       Cd278   2.001       .  S
Cd278       O280   2.117       .  S
O279        C286   1.284       .  A
C281        O285   1.261       .  A
C281        C298   1.485       .  S
C287        O288   1.271       .  A
C287        N332   1.416       .  S
C289        C290   1.413       .  A
C289        C294   1.419       .  A
C290        C291   1.398       .  A
C290        H295   1.084       .  S
C291        C308   1.484       .  S
C291        C292   1.389       .  A
C292        C293   1.406       .  A
C292        H296   1.086       .  S
C293        C393   1.500       .  S
C293        C294   1.413       .  A
C294        H297   1.084       .  S
C298        C299   1.421       .  A
C298        C303   1.418       .  A
C299        C300   1.419       .  A
C299        H304   1.082       .  S
C300        C402   1.503       .  S
C300        C301   1.411       .  A
C301        C302   1.381       .  A
C301        H305   1.083       .  S
C302        C358   1.483       .  S
C302        C303   1.395       .  A
C303        H306   1.084       .  S
N307        C311   1.347       .  A
N307        C746   1.345   1_545  A
C308        N745   1.345       .  A
C308        C309   1.384       .  A
C309        C748   1.386       .  A
C309        H312   1.082       .  S
C310        C311   1.385       .  A
C310        C747   1.386   1_545  A
C310        H313   1.082       .  S
C311        C318   1.488       .  S
C314        C315   1.423       .  A
C314        C319   1.417       .  A
C315        C316   1.418       .  A
C315        H320   1.083       .  S
C316        C416   1.504       .  S
C316        C317   1.404       .  A
C317        C318   1.388       .  A
C317        H321   1.086       .  S
C318        C319   1.400       .  A
C319        H322   1.084       .  S
C323        C324   1.415       .  A
C323        C328   1.428       .  A
C324        C325   1.393       .  A
C324        H329   1.084       .  S
C325        C333   1.479       .  S
C325        C326   1.383       .  A
C326        C327   1.402       .  A
C326        H330   1.083       .  S
C327        C425   1.514       .  S
C327        C328   1.428       .  A
C328        H331   1.082       .  S
N332        C336   1.343       .  A
N332        C333   1.346       .  A
C333        C334   1.385       .  A
C334        C335   1.385       .  A
C334        H337   1.082       .  S
C335        C336   1.383       .  A
C335        H338   1.082       .  S
C336        C343   1.475       .  S
C339        C340   1.425       .  A
C339        C344   1.409       .  A
C340        C341   1.421       .  A
C340        H345   1.082       .  S
C341        C373   1.514       .  S
C341        C342   1.407       .  A
C342        C343   1.383       .  A
C342        H346   1.083       .  S
C343        C344   1.391       .  A
C344        H347   1.085       .  S
C348        C349   1.415       .  A
C348        C353   1.421       .  A
C349        C350   1.395       .  A
C349        H354   1.085       .  S
C350        C361   1.483       .  S
C350        C351   1.383       .  A
C351        C352   1.412       .  A
C351        H355   1.083       .  S
C352        C382   1.503       .  S
C352        C353   1.418       .  A
C353        H356   1.082       .  S
N357        C361   1.353   1_655  A
N357       C1234   1.354       .  A
C358       N1233   1.354       .  A
C358        C359   1.385       .  A
C359       C1236   1.386       .  A
C359        H362   1.082       .  S
C360        C361   1.384       .  A
C360       C1235   1.386   1_455  A
C360        H363   1.082       .  S
N364        C368   1.351       .  A
N364       C1241   1.349   1_455  A
C365        C400   1.487       .  S
C365       N1240   1.349       .  A
C365        C366   1.382       .  A
C366       C1243   1.385       .  A
C366        H369   1.082       .  S
C367        C368   1.387       .  A
C367       C1242   1.385   1_455  A
C367        H370   1.082       .  S
C368        C384   1.487       .  S
C371        C372   1.427       .  A
C371        C376   1.422       .  A
C372        C373   1.415       .  A
C372        H377   1.082       .  S
C373        C374   1.408       .  A
C374        C375   1.384       .  A
C374        H378   1.082       .  S
C375        C436   1.493       .  S
C375        C376   1.408       .  A
C376        H379   1.083       .  S
C380        C381   1.425       .  A
C380        C385   1.418       .  A
C381        C382   1.414       .  A
C381        H386   1.083       .  S
C382        C383   1.403       .  A
C383        C384   1.388       .  A
C383        H387   1.085       .  S
C384        C385   1.405       .  A
C385        H388   1.084       .  S
C389        C390   1.424       .  A
C389        C394   1.422       .  A
C390        C391   1.401       .  A
C390        H395   1.084       .  S
C391        C408   1.486       .  S
C391        C392   1.377       .  A
C392        C393   1.409       .  A
C392        H396   1.083       .  S
C393        C394   1.417       .  A
C394        H397   1.083       .  S
C398        C399   1.415       .  A
C398        C403   1.419       .  A
C399        C400   1.399       .  A
C399        H404   1.084       .  S
C400        C401   1.389       .  A
C401        C402   1.408       .  A
C401        H405   1.085       .  S
C402        C403   1.414       .  A
C403        H406   1.083       .  S
N407        C411   1.345   1_565  A
N407        C846   1.347       .  A
C408        N845   1.347       .  A
C408        C409   1.388       .  A
C409        C848   1.392       .  A
C409        H412   1.082       .  S
C410        C411   1.384       .  A
C410        C847   1.392   1_545  A
C410        H413   1.082       .  S
C411        C418   1.485       .  S
C414        C415   1.422       .  A
C414        C419   1.419       .  A
C415        C416   1.415       .  A
C415        H420   1.083       .  S
C416        C417   1.413       .  A
C417        C418   1.381       .  A
C417        H421   1.081       .  S
C418        C419   1.397       .  A
C419        H422   1.084       .  S
C423        C424   1.418       .  A
C423        C428   1.412       .  A
C424        C425   1.415       .  A
C424        H429   1.082       .  S
C425        C426   1.423       .  A
C426        C427   1.389       .  A
C426        H430   1.081       .  S
C427        C433   1.490       .  S
C427        C428   1.393       .  A
C428        H431   1.084       .  S
N432        C436   1.359       .  A
N432        C433   1.354       .  A
C433        C434   1.381       .  A
C434        C435   1.386       .  A
C434        H437   1.082       .  S
C435        C436   1.389       .  A
C435        H438   1.082       .  S
O439        C455   1.258       .  A
O439       Zn445   1.899   1_556  S
C440        O456   1.263       .  A
C440        O453   1.282       .  A
C440        C638   1.487       .  S
O441        C454   1.280       .  A
O441       Cd448   2.147       .  S
O442       Cd451   2.032       .  S
O443        C457   1.276       .  A
O444        C455   1.275       .  A
Zn445       O456   1.938       .  S
Zn445       O450   1.884   1_554  S
O446        C457   1.284       .  A
O446       Cd451   2.129   1_556  S
Cd447       O449   2.076   1_545  S
Cd448       O452   2.121   1_554  S
Cd448       O461   2.034       .  S
O449        C459   1.275       .  A
O450       Cd451   2.017   1_556  S
Cd451       O453   2.154       .  S
O452        C459   1.284       .  A
C454        O458   1.262       .  A
C454        C629   1.480       .  S
C455        N845   1.409       .  S
C457        C809   1.497       .  S
C459        C818   1.495       .  S
C460        O461   1.273       .  A
C460        N672   1.424       .  S
O462        C478   1.262       .  A
O462       Zn468   1.915   1_554  S
C463        O479   1.263       .  A
C463        O476   1.280       .  A
C463        C836   1.476       .  S
O464        C477   1.286       .  A
O464       Cd471   2.171       .  S
O465        C483   1.269       .  A
O465       Cd474   2.020       .  S
O466        C480   1.275       .  A
O466       Cd470   2.070       .  S
O467        C478   1.276       .  A
O467       Cd470   2.084       .  S
Zn468       O479   1.954       .  S
Zn468       O481   1.943       .  S
Zn468       O473   1.889       .  S
O469        C480   1.280       .  A
O469       Cd474   2.104   1_554  S
Cd470       O472   2.075       .  S
Cd470       O473   2.006   1_554  S
Cd471       O475   2.138   1_556  S
Cd471       O484   2.049       .  S
Cd471       O473   2.014       .  S
O472        C482   1.276       .  A
O473       Cd474   2.013       .  S
Cd474       O476   2.133       .  S
O475        C482   1.285       .  A
C477        O481   1.264       .  A
C477        C827   1.492       .  S
C478        N647   1.414       .  S
C480        C688   1.491       .  S
C482        C679   1.500       .  S
C483        O484   1.275       .  A
C483        N870   1.430       .  S
O485        C501   1.259       .  A
O485       Zn491   1.885       .  S
C486        O502   1.259       .  A
C486        O499   1.279       .  A
C486        C786   1.481       .  S
O487        C500   1.278       .  A
O487       Cd494   2.130       .  S
O488       Cd497   2.004       .  S
O489        C503   1.277       .  A
O490        C501   1.280       .  A
Zn491       O502   1.914   1_545  S
O492        C503   1.283       .  A
O492       Cd497   2.109       .  S
Cd493       O495   2.085       .  S
Cd493       O496   2.002       .  S
Cd494       O498   2.097       .  S
Cd494       O507   1.984       .  S
Cd494       O496   1.999       .  S
O495        C505   1.277       .  A
Cd497       O499   2.149       .  S
O498        C505   1.280       .  A
C500        O504   1.259       .  A
C500        C777   1.474       .  S
C501        N604   1.409       .  S
C503        C561   1.496       .  S
C505        C570   1.494       .  S
C506        O507   1.265       .  A
C506        N745   1.412       .  S
O508        C524   1.259       .  A
O508       Zn514   1.888   1_554  S
C509        O525   1.263       .  A
C509        O522   1.280       .  A
C509        C852   1.485       .  S
O510        C523   1.276       .  A
O510       Cd517   2.125       .  S
O511       C1405   1.270       .  A
O511       Cd520   2.012       .  S
O512        C526   1.279       .  A
O512       Cd516   2.094       .  S
O513        C524   1.280       .  A
O513       Cd516   2.095       .  S
Zn514       O525   1.945       .  S
Zn514      O1403   1.934       .  S
Zn514       O519   1.872   1_556  S
O515        C526   1.282       .  A
O515       Cd520   2.109   1_554  S
Cd516      O1394   2.092       .  S
Cd516       O519   2.006       .  S
Cd517       O521   2.092   1_556  S
Cd517       O530   2.009       .  S
Cd517      O1395   2.010   1_556  S
O518        C528   1.277       .  A
O518      Cd1392   2.092   1_455  S
O519      Cd1393   2.010   1_554  S
O519       Cd520   2.004   1_554  S
Cd520       O522   2.143       .  S
O521        C528   1.280       .  A
C523        O527   1.261       .  A
C523        C861   1.472       .  S
C524        N697   1.412       .  S
C526        C654   1.500       .  S
O527      Zn1390   1.934       .  S
C528        C663   1.494       .  S
C529       O1387   1.270   1_455  A
C529        O530   1.269       .  A
C529        N802   1.417       .  S
O531        C547   1.264       .  A
O531       Zn537   1.958       .  S
C532        O548   1.266       .  A
C532        O545   1.266       .  A
C532        N554   1.404       .  S
O533        C546   1.287       .  A
O533       Cd540   2.170       .  S
O534        C552   1.269       .  A
O534      Cd1419   2.037       .  S
O535        C549   1.283       .  A
O535       Cd539   2.126       .  S
O536        C547   1.284       .  A
O536       Cd539   2.152       .  S
Zn537       O548   1.943       .  S
Zn537      O1426   1.945       .  S
Zn537       O542   1.893       .  S
O538        C549   1.269       .  A
O538       Cd543   2.033       .  S
Cd539       O541   2.026       .  S
Cd539       O542   2.013       .  S
Cd540       O544   2.039       .  S
Cd540       O553   2.151       .  S
Cd540      O1418   2.010       .  S
O541       C1427   1.270       .  A
O542      Cd1416   2.010       .  S
O542       Cd543   1.992       .  S
Cd543      O1410   2.037       .  S
Cd543       O545   2.025       .  S
O544        C551   1.272   1_455  A
C546        O550   1.264       .  A
C546        C761   1.488       .  S
C547        C752   1.484       .  S
C549        C586   1.486       .  S
O550      Zn1413   1.945   1_455  S
C551       O1417   1.270       .  A
C551        N795   1.434       .  S
C552        O553   1.285       .  A
C552        C595   1.495       .  S
N554        C558   1.347       .  A
N554       C1431   1.346       .  A
C555        C615   1.489       .  S
C555       N1430   1.346   1_455  A
C555        C556   1.385       .  A
C556       C1433   1.388   1_455  A
C556        H559   1.082       .  S
C557       C1432   1.388       .  A
C557        C558   1.386       .  A
C557        H560   1.082       .  S
C558        C574   1.488       .  S
C561        C562   1.426       .  A
C561        C566   1.418       .  A
C562        C563   1.420       .  A
C562        H567   1.082       .  S
C563        C631   1.513       .  S
C563        C564   1.403       .  A
C564        C565   1.385       .  A
C564        H568   1.082       .  S
C565        C580   1.483       .  S
C565        C566   1.401       .  A
C566        H569   1.084       .  S
C570        C571   1.422       .  A
C570        C575   1.421       .  A
C571        C572   1.413       .  A
C571        H576   1.082       .  S
C572        C640   1.506       .  S
C572        C573   1.405       .  A
C573        C574   1.388       .  A
C573        H577   1.084       .  S
C574        C575   1.405       .  A
C575        H578   1.084       .  S
N579        C720   1.400       .  S
N579        C583   1.343       .  A
N579        C580   1.344       .  A
C580        C581   1.385       .  A
C581        C582   1.392       .  A
C581        H584   1.082       .  S
C582        C583   1.385       .  A
C582        H585   1.082       .  S
C583        C590   1.483       .  S
C586        C587   1.422       .  A
C586        C591   1.416       .  A
C587        C588   1.410       .  A
C587        H592   1.081       .  S
C588        C656   1.512       .  S
C588        C589   1.408       .  A
C589        C590   1.388       .  A
C589        H593   1.082       .  S
C590        C591   1.404       .  A
C591        H594   1.084       .  S
C595        C596   1.425       .  A
C595        C600   1.417       .  A
C596        C597   1.413       .  A
C596        H601   1.082       .  S
C597        C667   1.507       .  S
C597        C598   1.406       .  A
C598        C599   1.388       .  A
C598        H602   1.083       .  S
C599        C608   1.483       .  S
C599        C600   1.409       .  A
C600        H603   1.083       .  S
N604        C608   1.347   1_545  A
C605        C624   1.481       .  S
C605        C606   1.386       .  A
C606        H609   1.082       .  S
C607        C608   1.385       .  A
C607        H610   1.082       .  S
C611        C722   1.485       .  S
C611        C612   1.417       .  A
C611        C616   1.418       .  A
C612        C613   1.405       .  A
C612        H617   1.082       .  S
C613        C681   1.503       .  S
C613        C614   1.410       .  A
C614        C615   1.392       .  A
C614        H618   1.083       .  S
C615        C616   1.405       .  A
C616        H619   1.084       .  S
C620        C724   1.495       .  S
C620        C621   1.422       .  A
C620        C625   1.418       .  A
C621        C622   1.413       .  A
C621        H626   1.083       .  S
C622        C692   1.503       .  S
C622        C623   1.405       .  A
C623        C624   1.386       .  A
C623        H627   1.083       .  S
C624        C625   1.408       .  A
C625        H628   1.084       .  S
C629        C630   1.419       .  A
C629        C634   1.415       .  A
C630        C631   1.418       .  A
C630        H635   1.082       .  S
C631        C632   1.416       .  A
C632        C633   1.385       .  A
C632        H636   1.081       .  S
C633        C648   1.484       .  S
C633        C634   1.396       .  A
C634        H637   1.084       .  S
C638        C639   1.420       .  A
C638        C643   1.416       .  A
C639        C640   1.420       .  A
C639        H644   1.082       .  S
C640        C641   1.412       .  A
C641        C642   1.382       .  A
C641        H645   1.082       .  S
C642        C701   1.480       .  S
C642        C643   1.396       .  A
C643        H646   1.085       .  S
N647        C651   1.353       .  A
N647        C648   1.349       .  A
C648        C649   1.381       .  A
C649        C650   1.385       .  A
C649        H652   1.082       .  S
C650        C651   1.389       .  A
C650        H653   1.082       .  S
C651        C658   1.484       .  S
C654        C655   1.425       .  A
C654        C659   1.421       .  A
C655        C656   1.418       .  A
C655        H660   1.081       .  S
C656        C657   1.404       .  A
C657        C658   1.384       .  A
C657        H661   1.080       .  S
C658        C659   1.405       .  A
C659        H662   1.083       .  S
C663        C664   1.417       .  A
C663        C668   1.422       .  A
C664        C665   1.401       .  A
C664        H669   1.084       .  S
C665        C676   1.486       .  S
C665        C666   1.390       .  A
C666        C667   1.407       .  A
C666        H670   1.083       .  S
C667        C668   1.415       .  A
C668        H671   1.082       .  S
N672        C676   1.353       .  A
C673        C690   1.486       .  S
C673        C674   1.384       .  A
C674        H677   1.082       .  S
C675        C676   1.384       .  A
C675        H678   1.082       .  S
C679        C680   1.425       .  A
C679        C684   1.421       .  A
C680        C681   1.417       .  A
C680        H685   1.082       .  S
C681        C682   1.399       .  A
C682        C683   1.382       .  A
C682        H686   1.083       .  S
C683        C698   1.480       .  S
C683        C684   1.409       .  A
C684        H687   1.083       .  S
C688        C689   1.418       .  A
C688        C693   1.419       .  A
C689        C690   1.406       .  A
C689        H694   1.083       .  S
C690        C691   1.390       .  A
C691        C692   1.406       .  A
C691        H695   1.084       .  S
C692        C693   1.410       .  A
C693        H696   1.082       .  S
N697        C701   1.345       .  A
N697       C1574   1.350       .  A
C698       N1573   1.350       .  A
C698        C699   1.389       .  A
C699       C1576   1.389   1_455  A
C699        H702   1.082       .  S
C700       C1575   1.389       .  A
C700        C701   1.382       .  A
C700        H703   1.082       .  S
O704        C720   1.260       .  A
O704       Zn710   1.884       .  S
C705        O721   1.262       .  A
C705        O718   1.277       .  A
C705        C727   1.473       .  S
O706        C719   1.283       .  A
O706       Cd713   2.160       .  S
O707        C725   1.266       .  A
O707       Cd716   1.982       .  S
O708        C722   1.273       .  A
O708       Cd712   2.059       .  S
O709        C720   1.272       .  A
O709       Cd712   2.048       .  S
Zn710       O721   1.960       .  S
Zn710       O723   1.923       .  S
Zn710       O715   1.872       .  S
O711        C722   1.278       .  A
O711       Cd716   2.095       .  S
Cd712       O714   2.062       .  S
Cd712       O715   1.992       .  S
Cd713       O717   2.131       .  S
Cd713       O726   2.017       .  S
Cd713       O715   2.008       .  S
O714        C724   1.274       .  A
O715       Cd716   2.001       .  S
Cd716       O718   2.117       .  S
O717        C724   1.284       .  A
C719        O723   1.261       .  A
C719        C736   1.485       .  S
C725        O726   1.271       .  A
C725        N770   1.416       .  S
C727        C728   1.413       .  A
C727        C732   1.419       .  A
C728        C729   1.398       .  A
C728        H733   1.084       .  S
C729        C746   1.484       .  S
C729        C730   1.389       .  A
C730        C731   1.406       .  A
C730        H734   1.086       .  S
C731        C831   1.500       .  S
C731        C732   1.413       .  A
C732        H735   1.084       .  S
C736        C737   1.421       .  A
C736        C741   1.418       .  A
C737        C738   1.419       .  A
C737        H742   1.082       .  S
C738        C840   1.503       .  S
C738        C739   1.411       .  A
C739        C740   1.381       .  A
C739        H743   1.083       .  S
C740        C796   1.483       .  S
C740        C741   1.395       .  A
C741        H744   1.084       .  S
N745        C749   1.347       .  A
C746        C747   1.384       .  A
C747        H750   1.082       .  S
C748        C749   1.385       .  A
C748        H751   1.082       .  S
C749        C756   1.488       .  S
C752        C753   1.423       .  A
C752        C757   1.417       .  A
C753        C754   1.418       .  A
C753        H758   1.083       .  S
C754        C854   1.504       .  S
C754        C755   1.404       .  A
C755        C756   1.388       .  A
C755        H759   1.086       .  S
C756        C757   1.400       .  A
C757        H760   1.084       .  S
C761        C762   1.415       .  A
C761        C766   1.428       .  A
C762        C763   1.393       .  A
C762        H767   1.084       .  S
C763        C771   1.479       .  S
C763        C764   1.383       .  A
C764        C765   1.402       .  A
C764        H768   1.083       .  S
C765        C863   1.514       .  S
C765        C766   1.428       .  A
C766        H769   1.082       .  S
N770        C774   1.343       .  A
N770        C771   1.346       .  A
C771        C772   1.385       .  A
C772        C773   1.385       .  A
C772        H775   1.082       .  S
C773        C774   1.383       .  A
C773        H776   1.082       .  S
C774        C781   1.475       .  S
C777        C778   1.425       .  A
C777        C782   1.409       .  A
C778        C779   1.421       .  A
C778        H783   1.082       .  S
C779        C811   1.514       .  S
C779        C780   1.407       .  A
C780        C781   1.383       .  A
C780        H784   1.083       .  S
C781        C782   1.391       .  A
C782        H785   1.085       .  S
C786        C787   1.415       .  A
C786        C791   1.421       .  A
C787        C788   1.395       .  A
C787        H792   1.085       .  S
C788        C799   1.483       .  S
C788        C789   1.383       .  A
C789        C790   1.412       .  A
C789        H793   1.083       .  S
C790        C820   1.503       .  S
C790        C791   1.418       .  A
C791        H794   1.082       .  S
N795        C799   1.353   1_655  A
N795       C1672   1.354       .  A
C796       N1671   1.354       .  A
C796        C797   1.385       .  A
C797       C1674   1.386       .  A
C797        H800   1.082       .  S
C798       C1673   1.386   1_455  A
C798        C799   1.384       .  A
C798        H801   1.082       .  S
N802        C806   1.351       .  A
N802       C1679   1.349   1_455  A
C803        C838   1.487       .  S
C803       N1678   1.349       .  A
C803        C804   1.382       .  A
C804       C1681   1.385       .  A
C804        H807   1.082       .  S
C805       C1680   1.385   1_455  A
C805        C806   1.387       .  A
C805        H808   1.082       .  S
C806        C822   1.487       .  S
C809        C810   1.427       .  A
C809        C814   1.422       .  A
C810        C811   1.415       .  A
C810        H815   1.082       .  S
C811        C812   1.408       .  A
C812        C813   1.384       .  A
C812        H816   1.082       .  S
C813        C874   1.493       .  S
C813        C814   1.408       .  A
C814        H817   1.083       .  S
C818        C819   1.425       .  A
C818        C823   1.418       .  A
C819        C820   1.414       .  A
C819        H824   1.083       .  S
C820        C821   1.403       .  A
C821        C822   1.388       .  A
C821        H825   1.085       .  S
C822        C823   1.405       .  A
C823        H826   1.084       .  S
C827        C828   1.424       .  A
C827        C832   1.422       .  A
C828        C829   1.401       .  A
C828        H833   1.084       .  S
C829        C846   1.486       .  S
C829        C830   1.377       .  A
C830        C831   1.409       .  A
C830        H834   1.083       .  S
C831        C832   1.417       .  A
C832        H835   1.083       .  S
C836        C837   1.415       .  A
C836        C841   1.419       .  A
C837        C838   1.399       .  A
C837        H842   1.084       .  S
C838        C839   1.389       .  A
C839        C840   1.408       .  A
C839        H843   1.085       .  S
C840        C841   1.414       .  A
C841        H844   1.083       .  S
N845        C849   1.345       .  A
C846        C847   1.388       .  A
C847        H850   1.082       .  S
C848        C849   1.384       .  A
C848        H851   1.082       .  S
C849        C856   1.485       .  S
C852        C853   1.422       .  A
C852        C857   1.419       .  A
C853        C854   1.415       .  A
C853        H858   1.083       .  S
C854        C855   1.413       .  A
C855        C856   1.381       .  A
C855        H859   1.081       .  S
C856        C857   1.397       .  A
C857        H860   1.084       .  S
C861        C862   1.418       .  A
C861        C866   1.412       .  A
C862        C863   1.415       .  A
C862        H867   1.082       .  S
C863        C864   1.423       .  A
C864        C865   1.389       .  A
C864        H868   1.081       .  S
C865        C871   1.490       .  S
C865        C866   1.393       .  A
C866        H869   1.084       .  S
N870        C874   1.359       .  A
N870        C871   1.354       .  A
C871        C872   1.381       .  A
C872        C873   1.386       .  A
C872        H875   1.082       .  S
C873        C874   1.389       .  A
C873        H876   1.082       .  S
O877        C893   1.258       .  A
O877       Zn883   1.899   1_556  S
C878        O894   1.263       .  A
C878        O891   1.282       .  A
C878       C1076   1.487       .  S
O879        C892   1.280       .  A
O879       Cd886   2.147       .  S
O880       C1336   1.273   1_545  A
O880       Cd889   2.032       .  S
O881        C895   1.276       .  A
O881      Cd1323   2.076       .  S
O882        C893   1.275   1_545  A
O882      Cd1323   2.077       .  S
Zn883       O894   1.938   1_565  S
Zn883      O1334   1.936       .  S
Zn883       O888   1.884   1_554  S
O884        C895   1.284       .  A
O884       Cd889   2.129   1_556  S
Cd885      O1319   2.076       .  S
Cd885      O1320   2.077       .  S
Cd885       O887   2.076       .  S
Cd885      O1326   2.006       .  S
Cd886       O890   2.121   1_554  S
Cd886       O899   2.034       .  S
Cd886      O1326   2.019   1_554  S
O887        C897   1.275       .  A
O888      Cd1323   2.006   1_565  S
O888      Cd1324   2.019   1_556  S
O888       Cd889   2.017   1_566  S
Cd889       O891   2.154       .  S
O890        C897   1.284       .  A
C892        O896   1.262       .  A
C892       C1067   1.480       .  S
C893       N1283   1.409       .  S
C895       C1247   1.497       .  S
O896      Zn1321   1.936       .  S
C897       C1256   1.495       .  S
C898       O1318   1.273       .  A
C898        O899   1.273       .  A
C898       N1110   1.424       .  S
O900        C916   1.262       .  A
O900       Zn906   1.915   1_554  S
C901        O917   1.263       .  A
C901        O914   1.280       .  A
C901       C1274   1.476       .  S
O902        C915   1.286       .  A
O902       Cd909   2.171       .  S
O903        C921   1.269       .  A
O903       Cd912   2.020       .  S
O904        C918   1.275       .  A
O904       Cd908   2.070       .  S
O905        C916   1.276       .  A
O905       Cd908   2.084       .  S
Zn906       O917   1.954       .  S
Zn906       O919   1.943       .  S
Zn906       O911   1.889       .  S
O907        C918   1.280       .  A
O907       Cd912   2.104   1_554  S
Cd908       O910   2.075       .  S
Cd908       O911   2.006   1_554  S
Cd909       O913   2.138   1_556  S
Cd909       O922   2.049       .  S
Cd909       O911   2.014       .  S
O910        C920   1.276       .  A
O911       Cd912   2.013       .  S
Cd912       O914   2.133       .  S
O913        C920   1.285       .  A
C915        O919   1.264       .  A
C915       C1265   1.492       .  S
C916       N1085   1.414       .  S
C918       C1126   1.491       .  S
C920       C1117   1.500       .  S
C921        O922   1.275       .  A
C921       N1308   1.430       .  S
O923        C939   1.259       .  A
O923       Zn929   1.885       .  S
C924        O940   1.259       .  A
C924        O937   1.279       .  A
C924       C1224   1.481       .  S
O925        C938   1.278       .  A
O925       Cd932   2.130       .  S
O926       C1382   1.269       .  A
O926       Cd935   2.004       .  S
O927        C941   1.277       .  A
O927      Cd1369   2.089       .  S
O928        C939   1.280       .  A
O928      Cd1369   2.090       .  S
Zn929       O940   1.914       .  S
Zn929      O1380   1.934       .  S
Zn929      O1372   1.865       .  S
O930        C941   1.283       .  A
O930       Cd935   2.109       .  S
Cd931      O1365   2.089   1_545  S
Cd931      O1366   2.090       .  S
Cd931       O933   2.085       .  S
Cd931       O934   2.002       .  S
Cd932       O936   2.097       .  S
Cd932       O945   1.984       .  S
Cd932       O934   1.999       .  S
O933        C943   1.277       .  A
O934      Zn1367   1.865       .  S
O934      Cd1373   2.005   1_545  S
Cd935       O937   2.149       .  S
Cd935      O1372   2.005       .  S
O936        C943   1.280       .  A
C938        O942   1.259       .  A
C938       C1215   1.474       .  S
C939       N1042   1.409       .  S
C941        C999   1.496       .  S
O942      Zn1367   1.934       .  S
C943       C1008   1.494       .  S
C944       O1364   1.269   1_545  A
C944        O945   1.265       .  A
C944       N1183   1.412       .  S
O946        C962   1.259       .  A
O946       Zn952   1.888   1_554  S
C947        O963   1.263       .  A
C947        O960   1.280       .  A
C947       C1290   1.485       .  S
O948        C961   1.276       .  A
O948       Cd955   2.125       .  S
O949       Cd958   2.012       .  S
O950        C964   1.279       .  A
O950       Cd954   2.094       .  S
O951        C962   1.280       .  A
O951       Cd954   2.095   1_455  S
Zn952       O963   1.945   1_455  S
Zn952       O957   1.872   1_556  S
O953        C964   1.282       .  A
O953       Cd958   2.109   1_554  S
Cd954       O957   2.006   1_655  S
Cd955       O959   2.092   1_556  S
Cd955       O968   2.009       .  S
O956        C966   1.277       .  A
O957       Cd958   2.004   1_454  S
Cd958       O960   2.143       .  S
O959        C966   1.280       .  A
C961        O965   1.261       .  A
C961       C1299   1.472       .  S
C962       N1135   1.412       .  S
C964       C1092   1.500       .  S
C966       C1101   1.494       .  S
C967        O968   1.269       .  A
C967       N1240   1.417       .  S
O969        C985   1.264       .  A
O969       Zn975   1.958       .  S
C970        O986   1.266       .  A
C970        O983   1.266       .  A
C970        N992   1.404       .  S
O971        C984   1.287       .  A
O971       Cd978   2.170       .  S
O972        C990   1.269       .  A
O973        C987   1.283       .  A
O973       Cd977   2.126       .  S
O974        C985   1.284       .  A
O974       Cd977   2.152       .  S
Zn975       O986   1.943       .  S
Zn975       O980   1.893   1_655  S
O976        C987   1.269       .  A
O976       Cd981   2.033   1_655  S
Cd977       O979   2.026       .  S
Cd977       O980   2.013   1_655  S
Cd978       O982   2.039       .  S
Cd978       O991   2.151       .  S
O980       Cd981   1.992       .  S
Cd981       O983   2.025   1_455  S
O982        C989   1.272       .  A
C984        O988   1.264       .  A
C984       C1199   1.488       .  S
C985       C1190   1.484       .  S
C987       C1024   1.486       .  S
C989       N1233   1.434       .  S
C990        O991   1.285       .  A
C990       C1033   1.495       .  S
N992        C996   1.347       .  A
C993       C1053   1.489       .  S
C993        C994   1.385       .  A
C994        H997   1.082       .  S
C995        C996   1.386       .  A
C995        H998   1.082       .  S
C996       C1012   1.488       .  S
C999       C1000   1.426       .  A
C999       C1004   1.418       .  A
C1000      C1001   1.420       .  A
C1000      H1005   1.082       .  S
C1001      C1069   1.513       .  S
C1001      C1002   1.403       .  A
C1002      C1003   1.385       .  A
C1002      H1006   1.082       .  S
C1003      C1018   1.483       .  S
C1003      C1004   1.401       .  A
C1004      H1007   1.084       .  S
C1008      C1009   1.422       .  A
C1008      C1013   1.421       .  A
C1009      C1010   1.413       .  A
C1009      H1014   1.082       .  S
C1010      C1078   1.506       .  S
C1010      C1011   1.405       .  A
C1011      C1012   1.388       .  A
C1011      H1015   1.084       .  S
C1012      C1013   1.405       .  A
C1013      H1016   1.084       .  S
N1017      C1158   1.400       .  S
N1017      C1021   1.343       .  A
N1017      C1018   1.344       .  A
C1018      C1019   1.385       .  A
C1019      C1020   1.392       .  A
C1019      H1022   1.082       .  S
C1020      C1021   1.385       .  A
C1020      H1023   1.082       .  S
C1021      C1028   1.483       .  S
C1024      C1025   1.422       .  A
C1024      C1029   1.416       .  A
C1025      C1026   1.410       .  A
C1025      H1030   1.081       .  S
C1026      C1094   1.512       .  S
C1026      C1027   1.408       .  A
C1027      C1028   1.388       .  A
C1027      H1031   1.082       .  S
C1028      C1029   1.404       .  A
C1029      H1032   1.084       .  S
C1033      C1034   1.425       .  A
C1033      C1038   1.417       .  A
C1034      C1035   1.413       .  A
C1034      H1039   1.082       .  S
C1035      C1105   1.507       .  S
C1035      C1036   1.406       .  A
C1036      C1037   1.388       .  A
C1036      H1040   1.083       .  S
C1037      C1046   1.483       .  S
C1037      C1038   1.409       .  A
C1038      H1041   1.083       .  S
N1042      C1046   1.347       .  A
N1042      C1481   1.346       .  A
C1043      C1062   1.481       .  S
C1043      N1480   1.346       .  A
C1043      C1044   1.386       .  A
C1044      C1483   1.391   1_545  A
C1044      H1047   1.082       .  S
C1045      C1482   1.391       .  A
C1045      C1046   1.385       .  A
C1045      H1048   1.082       .  S
C1049      C1160   1.485       .  S
C1049      C1050   1.417       .  A
C1049      C1054   1.418       .  A
C1050      C1051   1.405       .  A
C1050      H1055   1.082       .  S
C1051      C1119   1.503       .  S
C1051      C1052   1.410       .  A
C1052      C1053   1.392       .  A
C1052      H1056   1.083       .  S
C1053      C1054   1.405       .  A
C1054      H1057   1.084       .  S
C1058      C1162   1.495       .  S
C1058      C1059   1.422       .  A
C1058      C1063   1.418       .  A
C1059      C1060   1.413       .  A
C1059      H1064   1.083       .  S
C1060      C1130   1.503       .  S
C1060      C1061   1.405       .  A
C1061      C1062   1.386       .  A
C1061      H1065   1.083       .  S
C1062      C1063   1.408       .  A
C1063      H1066   1.084       .  S
C1067      C1068   1.419       .  A
C1067      C1072   1.415       .  A
C1068      C1069   1.418       .  A
C1068      H1073   1.082       .  S
C1069      C1070   1.416       .  A
C1070      C1071   1.385       .  A
C1070      H1074   1.081       .  S
C1071      C1086   1.484       .  S
C1071      C1072   1.396       .  A
C1072      H1075   1.084       .  S
C1076      C1077   1.420       .  A
C1076      C1081   1.416       .  A
C1077      C1078   1.420       .  A
C1077      H1082   1.082       .  S
C1078      C1079   1.412       .  A
C1079      C1080   1.382       .  A
C1079      H1083   1.082       .  S
C1080      C1139   1.480       .  S
C1080      C1081   1.396       .  A
C1081      H1084   1.085       .  S
N1085      C1089   1.353       .  A
N1085      C1086   1.349       .  A
C1086      C1087   1.381       .  A
C1087      C1088   1.385       .  A
C1087      H1090   1.082       .  S
C1088      C1089   1.389       .  A
C1088      H1091   1.082       .  S
C1089      C1096   1.484       .  S
C1092      C1093   1.425       .  A
C1092      C1097   1.421       .  A
C1093      C1094   1.418       .  A
C1093      H1098   1.081       .  S
C1094      C1095   1.404       .  A
C1095      C1096   1.384       .  A
C1095      H1099   1.080       .  S
C1096      C1097   1.405       .  A
C1097      H1100   1.083       .  S
C1101      C1102   1.417       .  A
C1101      C1106   1.422       .  A
C1102      C1103   1.401       .  A
C1102      H1107   1.084       .  S
C1103      C1114   1.486       .  S
C1103      C1104   1.390       .  A
C1104      C1105   1.407       .  A
C1104      H1108   1.083       .  S
C1105      C1106   1.415       .  A
C1106      H1109   1.082       .  S
N1110      C1114   1.353       .  A
N1110      C1549   1.354       .  A
C1111      C1128   1.486       .  S
C1111      N1548   1.354   1_545  A
C1111      C1112   1.384       .  A
C1112      C1551   1.383   1_545  A
C1112      H1115   1.082       .  S
C1113      C1550   1.383       .  A
C1113      C1114   1.384       .  A
C1113      H1116   1.082       .  S
C1117      C1118   1.425       .  A
C1117      C1122   1.421       .  A
C1118      C1119   1.417       .  A
C1118      H1123   1.082       .  S
C1119      C1120   1.399       .  A
C1120      C1121   1.382       .  A
C1120      H1124   1.083       .  S
C1121      C1136   1.480       .  S
C1121      C1122   1.409       .  A
C1122      H1125   1.083       .  S
C1126      C1127   1.418       .  A
C1126      C1131   1.419       .  A
C1127      C1128   1.406       .  A
C1127      H1132   1.083       .  S
C1128      C1129   1.390       .  A
C1129      C1130   1.406       .  A
C1129      H1133   1.084       .  S
C1130      C1131   1.410       .  A
C1131      H1134   1.082       .  S
N1135      C1139   1.345   1_455  A
C1136      C1137   1.389       .  A
C1137      H1140   1.082       .  S
C1138      C1139   1.382       .  A
C1138      H1141   1.082       .  S
O1142      C1158   1.260       .  A
O1142     Zn1148   1.884       .  S
C1143      O1159   1.262       .  A
C1143      O1156   1.277       .  A
C1143      C1165   1.473       .  S
O1144      C1157   1.283       .  A
O1144     Cd1151   2.160       .  S
O1145      C1163   1.266       .  A
O1145     Cd1154   1.982       .  S
O1146      C1160   1.273       .  A
O1146     Cd1150   2.059       .  S
O1147      C1158   1.272       .  A
O1147     Cd1150   2.048       .  S
Zn1148     O1159   1.960       .  S
Zn1148     O1161   1.923       .  S
Zn1148     O1153   1.872       .  S
O1149      C1160   1.278       .  A
O1149     Cd1154   2.095       .  S
Cd1150     O1152   2.062       .  S
Cd1150     O1153   1.992       .  S
Cd1151     O1155   2.131       .  S
Cd1151     O1164   2.017       .  S
Cd1151     O1153   2.008       .  S
O1152      C1162   1.274       .  A
O1153     Cd1154   2.001       .  S
Cd1154     O1156   2.117       .  S
O1155      C1162   1.284       .  A
C1157      O1161   1.261       .  A
C1157      C1174   1.485       .  S
C1163      O1164   1.271       .  A
C1163      N1208   1.416       .  S
C1165      C1166   1.413       .  A
C1165      C1170   1.419       .  A
C1166      C1167   1.398       .  A
C1166      H1171   1.084       .  S
C1167      C1184   1.484       .  S
C1167      C1168   1.389       .  A
C1168      C1169   1.406       .  A
C1168      H1172   1.086       .  S
C1169      C1269   1.500       .  S
C1169      C1170   1.413       .  A
C1170      H1173   1.084       .  S
C1174      C1175   1.421       .  A
C1174      C1179   1.418       .  A
C1175      C1176   1.419       .  A
C1175      H1180   1.082       .  S
C1176      C1278   1.503       .  S
C1176      C1177   1.411       .  A
C1177      C1178   1.381       .  A
C1177      H1181   1.083       .  S
C1178      C1234   1.483       .  S
C1178      C1179   1.395       .  A
C1179      H1182   1.084       .  S
N1183      C1187   1.347       .  A
N1183      C1622   1.345   1_545  A
C1184      N1621   1.345       .  A
C1184      C1185   1.384       .  A
C1185      C1624   1.386       .  A
C1185      H1188   1.082       .  S
C1186      C1623   1.386   1_545  A
C1186      C1187   1.385       .  A
C1186      H1189   1.082       .  S
C1187      C1194   1.488       .  S
C1190      C1191   1.423       .  A
C1190      C1195   1.417       .  A
C1191      C1192   1.418       .  A
C1191      H1196   1.083       .  S
C1192      C1292   1.504       .  S
C1192      C1193   1.404       .  A
C1193      C1194   1.388       .  A
C1193      H1197   1.086       .  S
C1194      C1195   1.400       .  A
C1195      H1198   1.084       .  S
C1199      C1200   1.415       .  A
C1199      C1204   1.428       .  A
C1200      C1201   1.393       .  A
C1200      H1205   1.084       .  S
C1201      C1209   1.479       .  S
C1201      C1202   1.383       .  A
C1202      C1203   1.402       .  A
C1202      H1206   1.083       .  S
C1203      C1301   1.514       .  S
C1203      C1204   1.428       .  A
C1204      H1207   1.082       .  S
N1208      C1212   1.343       .  A
N1208      C1209   1.346       .  A
C1209      C1210   1.385       .  A
C1210      C1211   1.385       .  A
C1210      H1213   1.082       .  S
C1211      C1212   1.383       .  A
C1211      H1214   1.082       .  S
C1212      C1219   1.475       .  S
C1215      C1216   1.425       .  A
C1215      C1220   1.409       .  A
C1216      C1217   1.421       .  A
C1216      H1221   1.082       .  S
C1217      C1249   1.514       .  S
C1217      C1218   1.407       .  A
C1218      C1219   1.383       .  A
C1218      H1222   1.083       .  S
C1219      C1220   1.391       .  A
C1220      H1223   1.085       .  S
C1224      C1225   1.415       .  A
C1224      C1229   1.421       .  A
C1225      C1226   1.395       .  A
C1225      H1230   1.085       .  S
C1226      C1237   1.483       .  S
C1226      C1227   1.383       .  A
C1227      C1228   1.412       .  A
C1227      H1231   1.083       .  S
C1228      C1258   1.503       .  S
C1228      C1229   1.418       .  A
C1229      H1232   1.082       .  S
N1233      C1237   1.353       .  A
C1234      C1235   1.385       .  A
C1235      H1238   1.082       .  S
C1236      C1237   1.384       .  A
C1236      H1239   1.082       .  S
N1240      C1244   1.351       .  A
C1241      C1276   1.487       .  S
C1241      C1242   1.382       .  A
C1242      H1245   1.082       .  S
C1243      C1244   1.387       .  A
C1243      H1246   1.082       .  S
C1244      C1260   1.487       .  S
C1247      C1248   1.427       .  A
C1247      C1252   1.422       .  A
C1248      C1249   1.415       .  A
C1248      H1253   1.082       .  S
C1249      C1250   1.408       .  A
C1250      C1251   1.384       .  A
C1250      H1254   1.082       .  S
C1251      C1312   1.493       .  S
C1251      C1252   1.408       .  A
C1252      H1255   1.083       .  S
C1256      C1257   1.425       .  A
C1256      C1261   1.418       .  A
C1257      C1258   1.414       .  A
C1257      H1262   1.083       .  S
C1258      C1259   1.403       .  A
C1259      C1260   1.388       .  A
C1259      H1263   1.085       .  S
C1260      C1261   1.405       .  A
C1261      H1264   1.084       .  S
C1265      C1266   1.424       .  A
C1265      C1270   1.422       .  A
C1266      C1267   1.401       .  A
C1266      H1271   1.084       .  S
C1267      C1284   1.486       .  S
C1267      C1268   1.377       .  A
C1268      C1269   1.409       .  A
C1268      H1272   1.083       .  S
C1269      C1270   1.417       .  A
C1270      H1273   1.083       .  S
C1274      C1275   1.415       .  A
C1274      C1279   1.419       .  A
C1275      C1276   1.399       .  A
C1275      H1280   1.084       .  S
C1276      C1277   1.389       .  A
C1277      C1278   1.408       .  A
C1277      H1281   1.085       .  S
C1278      C1279   1.414       .  A
C1279      H1282   1.083       .  S
N1283      C1287   1.345   1_565  A
N1283      C1722   1.347       .  A
C1284      N1721   1.347       .  A
C1284      C1285   1.388       .  A
C1285      C1724   1.392       .  A
C1285      H1288   1.082       .  S
C1286      C1723   1.392   1_545  A
C1286      C1287   1.384       .  A
C1286      H1289   1.082       .  S
C1287      C1294   1.485       .  S
C1290      C1291   1.422       .  A
C1290      C1295   1.419       .  A
C1291      C1292   1.415       .  A
C1291      H1296   1.083       .  S
C1292      C1293   1.413       .  A
C1293      C1294   1.381       .  A
C1293      H1297   1.081       .  S
C1294      C1295   1.397       .  A
C1295      H1298   1.084       .  S
C1299      C1300   1.418       .  A
C1299      C1304   1.412       .  A
C1300      C1301   1.415       .  A
C1300      H1305   1.082       .  S
C1301      C1302   1.423       .  A
C1302      C1303   1.389       .  A
C1302      H1306   1.081       .  S
C1303      C1309   1.490       .  S
C1303      C1304   1.393       .  A
C1304      H1307   1.084       .  S
N1308      C1312   1.359       .  A
N1308      C1309   1.354       .  A
C1309      C1310   1.381       .  A
C1310      C1311   1.386       .  A
C1310      H1313   1.082       .  S
C1311      C1312   1.389       .  A
C1311      H1314   1.082       .  S
O1315      C1331   1.258       .  A
O1315     Zn1321   1.899   1_556  S
C1316      O1332   1.263       .  A
C1316      O1329   1.282       .  A
C1316      C1514   1.487       .  S
O1317      C1330   1.280       .  A
O1317     Cd1324   2.147       .  S
O1318     Cd1327   2.032       .  S
O1319      C1333   1.276       .  A
O1320      C1331   1.275       .  A
Zn1321     O1332   1.938       .  S
Zn1321     O1326   1.884   1_554  S
O1322      C1333   1.284       .  A
O1322     Cd1327   2.129   1_556  S
Cd1323     O1325   2.076   1_545  S
Cd1324     O1328   2.121   1_554  S
Cd1324     O1337   2.034       .  S
O1325      C1335   1.275       .  A
O1326     Cd1327   2.017   1_556  S
Cd1327     O1329   2.154       .  S
O1328      C1335   1.284       .  A
C1330      O1334   1.262       .  A
C1330      C1505   1.480       .  S
C1331      N1721   1.409       .  S
C1333      C1685   1.497       .  S
C1335      C1694   1.495       .  S
C1336      O1337   1.273       .  A
C1336      N1548   1.424       .  S
O1338      C1354   1.262       .  A
O1338     Zn1344   1.915   1_554  S
C1339      O1355   1.263       .  A
C1339      O1352   1.280       .  A
C1339      C1712   1.476       .  S
O1340      C1353   1.286       .  A
O1340     Cd1347   2.171       .  S
O1341      C1359   1.269       .  A
O1341     Cd1350   2.020       .  S
O1342      C1356   1.275       .  A
O1342     Cd1346   2.070       .  S
O1343      C1354   1.276       .  A
O1343     Cd1346   2.084       .  S
Zn1344     O1355   1.954       .  S
Zn1344     O1357   1.943       .  S
Zn1344     O1349   1.889       .  S
O1345      C1356   1.280       .  A
O1345     Cd1350   2.104   1_554  S
Cd1346     O1348   2.075       .  S
Cd1346     O1349   2.006   1_554  S
Cd1347     O1351   2.138   1_556  S
Cd1347     O1360   2.049       .  S
Cd1347     O1349   2.014       .  S
O1348      C1358   1.276       .  A
O1349     Cd1350   2.013       .  S
Cd1350     O1352   2.133       .  S
O1351      C1358   1.285       .  A
C1353      O1357   1.264       .  A
C1353      C1703   1.492       .  S
C1354      N1523   1.414       .  S
C1356      C1564   1.491       .  S
C1358      C1555   1.500       .  S
C1359      O1360   1.275       .  A
C1359      N1746   1.430       .  S
O1361      C1377   1.259       .  A
O1361     Zn1367   1.885       .  S
C1362      O1378   1.259       .  A
C1362      O1375   1.279       .  A
C1362      C1662   1.481       .  S
O1363      C1376   1.278       .  A
O1363     Cd1370   2.130       .  S
O1364     Cd1373   2.004       .  S
O1365      C1379   1.277       .  A
O1366      C1377   1.280       .  A
Zn1367     O1378   1.914   1_545  S
O1368      C1379   1.283       .  A
O1368     Cd1373   2.109       .  S
Cd1369     O1371   2.085       .  S
Cd1369     O1372   2.002       .  S
Cd1370     O1374   2.097       .  S
Cd1370     O1383   1.984       .  S
Cd1370     O1372   1.999       .  S
O1371      C1381   1.277       .  A
Cd1373     O1375   2.149       .  S
O1374      C1381   1.280       .  A
C1376      O1380   1.259       .  A
C1376      C1653   1.474       .  S
C1377      N1480   1.409       .  S
C1379      C1437   1.496       .  S
C1381      C1446   1.494       .  S
C1382      O1383   1.265       .  A
C1382      N1621   1.412       .  S
O1384      C1400   1.259       .  A
O1384     Zn1390   1.888   1_554  S
C1385      O1401   1.263       .  A
C1385      O1398   1.280       .  A
C1385      C1728   1.485       .  S
O1386      C1399   1.276       .  A
O1386     Cd1393   2.125       .  S
O1387     Cd1396   2.012       .  S
O1388      C1402   1.279       .  A
O1388     Cd1392   2.094       .  S
O1389      C1400   1.280       .  A
O1389     Cd1392   2.095   1_455  S
Zn1390     O1401   1.945   1_455  S
Zn1390     O1395   1.872   1_556  S
O1391      C1402   1.282       .  A
O1391     Cd1396   2.109   1_554  S
Cd1392     O1395   2.006   1_655  S
Cd1393     O1397   2.092   1_556  S
Cd1393     O1406   2.009       .  S
O1394      C1404   1.277       .  A
O1395     Cd1396   2.004   1_454  S
Cd1396     O1398   2.143       .  S
O1397      C1404   1.280       .  A
C1399      O1403   1.261       .  A
C1399      C1737   1.472       .  S
C1400      N1573   1.412       .  S
C1402      C1530   1.500       .  S
C1404      C1539   1.494       .  S
C1405      O1406   1.269       .  A
C1405      N1678   1.417       .  S
O1407      C1423   1.264       .  A
O1407     Zn1413   1.958       .  S
C1408      O1424   1.266       .  A
C1408      O1421   1.266       .  A
C1408      N1430   1.404       .  S
O1409      C1422   1.287       .  A
O1409     Cd1416   2.170       .  S
O1410      C1428   1.269       .  A
O1411      C1425   1.283       .  A
O1411     Cd1415   2.126       .  S
O1412      C1423   1.284       .  A
O1412     Cd1415   2.152       .  S
Zn1413     O1424   1.943       .  S
Zn1413     O1418   1.893   1_655  S
O1414      C1425   1.269       .  A
O1414     Cd1419   2.033   1_655  S
Cd1415     O1417   2.026       .  S
Cd1415     O1418   2.013   1_655  S
Cd1416     O1420   2.039       .  S
Cd1416     O1429   2.151       .  S
O1418     Cd1419   1.992       .  S
Cd1419     O1421   2.025   1_455  S
O1420      C1427   1.272       .  A
C1422      O1426   1.264       .  A
C1422      C1637   1.488       .  S
C1423      C1628   1.484       .  S
C1425      C1462   1.486       .  S
C1427      N1671   1.434       .  S
C1428      O1429   1.285       .  A
C1428      C1471   1.495       .  S
N1430      C1434   1.347       .  A
C1431      C1491   1.489       .  S
C1431      C1432   1.385       .  A
C1432      H1435   1.082       .  S
C1433      C1434   1.386       .  A
C1433      H1436   1.082       .  S
C1434      C1450   1.488       .  S
C1437      C1438   1.426       .  A
C1437      C1442   1.418       .  A
C1438      C1439   1.420       .  A
C1438      H1443   1.082       .  S
C1439      C1507   1.513       .  S
C1439      C1440   1.403       .  A
C1440      C1441   1.385       .  A
C1440      H1444   1.082       .  S
C1441      C1456   1.483       .  S
C1441      C1442   1.401       .  A
C1442      H1445   1.084       .  S
C1446      C1447   1.422       .  A
C1446      C1451   1.421       .  A
C1447      C1448   1.413       .  A
C1447      H1452   1.082       .  S
C1448      C1516   1.506       .  S
C1448      C1449   1.405       .  A
C1449      C1450   1.388       .  A
C1449      H1453   1.084       .  S
C1450      C1451   1.405       .  A
C1451      H1454   1.084       .  S
N1455      C1596   1.400       .  S
N1455      C1459   1.343       .  A
N1455      C1456   1.344       .  A
C1456      C1457   1.385       .  A
C1457      C1458   1.392       .  A
C1457      H1460   1.082       .  S
C1458      C1459   1.385       .  A
C1458      H1461   1.082       .  S
C1459      C1466   1.483       .  S
C1462      C1463   1.422       .  A
C1462      C1467   1.416       .  A
C1463      C1464   1.410       .  A
C1463      H1468   1.081       .  S
C1464      C1532   1.512       .  S
C1464      C1465   1.408       .  A
C1465      C1466   1.388       .  A
C1465      H1469   1.082       .  S
C1466      C1467   1.404       .  A
C1467      H1470   1.084       .  S
C1471      C1472   1.425       .  A
C1471      C1476   1.417       .  A
C1472      C1473   1.413       .  A
C1472      H1477   1.082       .  S
C1473      C1543   1.507       .  S
C1473      C1474   1.406       .  A
C1474      C1475   1.388       .  A
C1474      H1478   1.083       .  S
C1475      C1484   1.483       .  S
C1475      C1476   1.409       .  A
C1476      H1479   1.083       .  S
N1480      C1484   1.347   1_545  A
C1481      C1500   1.481       .  S
C1481      C1482   1.386       .  A
C1482      H1485   1.082       .  S
C1483      C1484   1.385       .  A
C1483      H1486   1.082       .  S
C1487      C1598   1.485       .  S
C1487      C1488   1.417       .  A
C1487      C1492   1.418       .  A
C1488      C1489   1.405       .  A
C1488      H1493   1.082       .  S
C1489      C1557   1.503       .  S
C1489      C1490   1.410       .  A
C1490      C1491   1.392       .  A
C1490      H1494   1.083       .  S
C1491      C1492   1.405       .  A
C1492      H1495   1.084       .  S
C1496      C1600   1.495       .  S
C1496      C1497   1.422       .  A
C1496      C1501   1.418       .  A
C1497      C1498   1.413       .  A
C1497      H1502   1.083       .  S
C1498      C1568   1.503       .  S
C1498      C1499   1.405       .  A
C1499      C1500   1.386       .  A
C1499      H1503   1.083       .  S
C1500      C1501   1.408       .  A
C1501      H1504   1.084       .  S
C1505      C1506   1.419       .  A
C1505      C1510   1.415       .  A
C1506      C1507   1.418       .  A
C1506      H1511   1.082       .  S
C1507      C1508   1.416       .  A
C1508      C1509   1.385       .  A
C1508      H1512   1.081       .  S
C1509      C1524   1.484       .  S
C1509      C1510   1.396       .  A
C1510      H1513   1.084       .  S
C1514      C1515   1.420       .  A
C1514      C1519   1.416       .  A
C1515      C1516   1.420       .  A
C1515      H1520   1.082       .  S
C1516      C1517   1.412       .  A
C1517      C1518   1.382       .  A
C1517      H1521   1.082       .  S
C1518      C1577   1.480       .  S
C1518      C1519   1.396       .  A
C1519      H1522   1.085       .  S
N1523      C1527   1.353       .  A
N1523      C1524   1.349       .  A
C1524      C1525   1.381       .  A
C1525      C1526   1.385       .  A
C1525      H1528   1.082       .  S
C1526      C1527   1.389       .  A
C1526      H1529   1.082       .  S
C1527      C1534   1.484       .  S
C1530      C1531   1.425       .  A
C1530      C1535   1.421       .  A
C1531      C1532   1.418       .  A
C1531      H1536   1.081       .  S
C1532      C1533   1.404       .  A
C1533      C1534   1.384       .  A
C1533      H1537   1.080       .  S
C1534      C1535   1.405       .  A
C1535      H1538   1.083       .  S
C1539      C1540   1.417       .  A
C1539      C1544   1.422       .  A
C1540      C1541   1.401       .  A
C1540      H1545   1.084       .  S
C1541      C1552   1.486       .  S
C1541      C1542   1.390       .  A
C1542      C1543   1.407       .  A
C1542      H1546   1.083       .  S
C1543      C1544   1.415       .  A
C1544      H1547   1.082       .  S
N1548      C1552   1.353       .  A
C1549      C1566   1.486       .  S
C1549      C1550   1.384       .  A
C1550      H1553   1.082       .  S
C1551      C1552   1.384       .  A
C1551      H1554   1.082       .  S
C1555      C1556   1.425       .  A
C1555      C1560   1.421       .  A
C1556      C1557   1.417       .  A
C1556      H1561   1.082       .  S
C1557      C1558   1.399       .  A
C1558      C1559   1.382       .  A
C1558      H1562   1.083       .  S
C1559      C1574   1.480       .  S
C1559      C1560   1.409       .  A
C1560      H1563   1.083       .  S
C1564      C1565   1.418       .  A
C1564      C1569   1.419       .  A
C1565      C1566   1.406       .  A
C1565      H1570   1.083       .  S
C1566      C1567   1.390       .  A
C1567      C1568   1.406       .  A
C1567      H1571   1.084       .  S
C1568      C1569   1.410       .  A
C1569      H1572   1.082       .  S
N1573      C1577   1.345   1_455  A
C1574      C1575   1.389       .  A
C1575      H1578   1.082       .  S
C1576      C1577   1.382       .  A
C1576      H1579   1.082       .  S
O1580      C1596   1.260       .  A
O1580     Zn1586   1.884       .  S
C1581      O1597   1.262       .  A
C1581      O1594   1.277       .  A
C1581      C1603   1.473       .  S
O1582      C1595   1.283       .  A
O1582     Cd1589   2.160       .  S
O1583      C1601   1.266       .  A
O1583     Cd1592   1.982       .  S
O1584      C1598   1.273       .  A
O1584     Cd1588   2.059       .  S
O1585      C1596   1.272       .  A
O1585     Cd1588   2.048       .  S
Zn1586     O1597   1.960       .  S
Zn1586     O1599   1.923       .  S
Zn1586     O1591   1.872       .  S
O1587      C1598   1.278       .  A
O1587     Cd1592   2.095       .  S
Cd1588     O1590   2.062       .  S
Cd1588     O1591   1.992       .  S
Cd1589     O1593   2.131       .  S
Cd1589     O1602   2.017       .  S
Cd1589     O1591   2.008       .  S
O1590      C1600   1.274       .  A
O1591     Cd1592   2.001       .  S
Cd1592     O1594   2.117       .  S
O1593      C1600   1.284       .  A
C1595      O1599   1.261       .  A
C1595      C1612   1.485       .  S
C1601      O1602   1.271       .  A
C1601      N1646   1.416       .  S
C1603      C1604   1.413       .  A
C1603      C1608   1.419       .  A
C1604      C1605   1.398       .  A
C1604      H1609   1.084       .  S
C1605      C1622   1.484       .  S
C1605      C1606   1.389       .  A
C1606      C1607   1.406       .  A
C1606      H1610   1.086       .  S
C1607      C1707   1.500       .  S
C1607      C1608   1.413       .  A
C1608      H1611   1.084       .  S
C1612      C1613   1.421       .  A
C1612      C1617   1.418       .  A
C1613      C1614   1.419       .  A
C1613      H1618   1.082       .  S
C1614      C1716   1.503       .  S
C1614      C1615   1.411       .  A
C1615      C1616   1.381       .  A
C1615      H1619   1.083       .  S
C1616      C1672   1.483       .  S
C1616      C1617   1.395       .  A
C1617      H1620   1.084       .  S
N1621      C1625   1.347       .  A
C1622      C1623   1.384       .  A
C1623      H1626   1.082       .  S
C1624      C1625   1.385       .  A
C1624      H1627   1.082       .  S
C1625      C1632   1.488       .  S
C1628      C1629   1.423       .  A
C1628      C1633   1.417       .  A
C1629      C1630   1.418       .  A
C1629      H1634   1.083       .  S
C1630      C1730   1.504       .  S
C1630      C1631   1.404       .  A
C1631      C1632   1.388       .  A
C1631      H1635   1.086       .  S
C1632      C1633   1.400       .  A
C1633      H1636   1.084       .  S
C1637      C1638   1.415       .  A
C1637      C1642   1.428       .  A
C1638      C1639   1.393       .  A
C1638      H1643   1.084       .  S
C1639      C1647   1.479       .  S
C1639      C1640   1.383       .  A
C1640      C1641   1.402       .  A
C1640      H1644   1.083       .  S
C1641      C1739   1.514       .  S
C1641      C1642   1.428       .  A
C1642      H1645   1.082       .  S
N1646      C1650   1.343       .  A
N1646      C1647   1.346       .  A
C1647      C1648   1.385       .  A
C1648      C1649   1.385       .  A
C1648      H1651   1.082       .  S
C1649      C1650   1.383       .  A
C1649      H1652   1.082       .  S
C1650      C1657   1.475       .  S
C1653      C1654   1.425       .  A
C1653      C1658   1.409       .  A
C1654      C1655   1.421       .  A
C1654      H1659   1.082       .  S
C1655      C1687   1.514       .  S
C1655      C1656   1.407       .  A
C1656      C1657   1.383       .  A
C1656      H1660   1.083       .  S
C1657      C1658   1.391       .  A
C1658      H1661   1.085       .  S
C1662      C1663   1.415       .  A
C1662      C1667   1.421       .  A
C1663      C1664   1.395       .  A
C1663      H1668   1.085       .  S
C1664      C1675   1.483       .  S
C1664      C1665   1.383       .  A
C1665      C1666   1.412       .  A
C1665      H1669   1.083       .  S
C1666      C1696   1.503       .  S
C1666      C1667   1.418       .  A
C1667      H1670   1.082       .  S
N1671      C1675   1.353       .  A
C1672      C1673   1.385       .  A
C1673      H1676   1.082       .  S
C1674      C1675   1.384       .  A
C1674      H1677   1.082       .  S
N1678      C1682   1.351       .  A
C1679      C1714   1.487       .  S
C1679      C1680   1.382       .  A
C1680      H1683   1.082       .  S
C1681      C1682   1.387       .  A
C1681      H1684   1.082       .  S
C1682      C1698   1.487       .  S
C1685      C1686   1.427       .  A
C1685      C1690   1.422       .  A
C1686      C1687   1.415       .  A
C1686      H1691   1.082       .  S
C1687      C1688   1.408       .  A
C1688      C1689   1.384       .  A
C1688      H1692   1.082       .  S
C1689      C1750   1.493       .  S
C1689      C1690   1.408       .  A
C1690      H1693   1.083       .  S
C1694      C1695   1.425       .  A
C1694      C1699   1.418       .  A
C1695      C1696   1.414       .  A
C1695      H1700   1.083       .  S
C1696      C1697   1.403       .  A
C1697      C1698   1.388       .  A
C1697      H1701   1.085       .  S
C1698      C1699   1.405       .  A
C1699      H1702   1.084       .  S
C1703      C1704   1.424       .  A
C1703      C1708   1.422       .  A
C1704      C1705   1.401       .  A
C1704      H1709   1.084       .  S
C1705      C1722   1.486       .  S
C1705      C1706   1.377       .  A
C1706      C1707   1.409       .  A
C1706      H1710   1.083       .  S
C1707      C1708   1.417       .  A
C1708      H1711   1.083       .  S
C1712      C1713   1.415       .  A
C1712      C1717   1.419       .  A
C1713      C1714   1.399       .  A
C1713      H1718   1.084       .  S
C1714      C1715   1.389       .  A
C1715      C1716   1.408       .  A
C1715      H1719   1.085       .  S
C1716      C1717   1.414       .  A
C1717      H1720   1.083       .  S
N1721      C1725   1.345       .  A
C1722      C1723   1.388       .  A
C1723      H1726   1.082       .  S
C1724      C1725   1.384       .  A
C1724      H1727   1.082       .  S
C1725      C1732   1.485       .  S
C1728      C1729   1.422       .  A
C1728      C1733   1.419       .  A
C1729      C1730   1.415       .  A
C1729      H1734   1.083       .  S
C1730      C1731   1.413       .  A
C1731      C1732   1.381       .  A
C1731      H1735   1.081       .  S
C1732      C1733   1.397       .  A
C1733      H1736   1.084       .  S
C1737      C1738   1.418       .  A
C1737      C1742   1.412       .  A
C1738      C1739   1.415       .  A
C1738      H1743   1.082       .  S
C1739      C1740   1.423       .  A
C1740      C1741   1.389       .  A
C1740      H1744   1.081       .  S
C1741      C1747   1.490       .  S
C1741      C1742   1.393       .  A
C1742      H1745   1.084       .  S
N1746      C1750   1.359       .  A
N1746      C1747   1.354       .  A
C1747      C1748   1.381       .  A
C1748      C1749   1.386       .  A
C1748      H1751   1.082       .  S
C1749      C1750   1.389       .  A
C1749      H1752   1.082       .  S
