geometry optimzed in LAMMPS
_audit_creation_date              2020-11-30 
_audit_creation_method            'lammps2cif' 
_symmetry_space_group_name_H-M    'P1' 
_symmetry_Int_Tables_number       1 
_symmetry_cell_setting            triclinic 
loop_ 
_symmetry_equiv_pos_as_xyz 
  x,y,z 
_cell_length_a                    35.14127461 
_cell_length_b                    35.15816466441175 
_cell_length_c                    86.44288166710199 
_cell_angle_alpha                 90.00857202647506 
_cell_angle_beta                  90.04555689637314 
_cell_angle_gamma                 120.16057235393959 
loop_ 
_atom_site_label 
_atom_site_type_symbol 
_atom_site_fract_x 
_atom_site_fract_y 
_atom_site_fract_z 
_atom_site_charge 
C1          C  0.64801172  0.09504047  0.71221715     0.80000
N2          N  0.61483420  0.05424878  0.70858008    -0.78300
C3          C  0.61817336  0.03127185  0.69657911     0.82500
N4          N  0.65578069  0.04952266  0.68811854    -0.78200
C5          C  0.68944520  0.09046238  0.69161040     0.82600
N6          N  0.68554563  0.11307302  0.70369921    -0.80000
C7          C  0.77440241  0.10206217  0.66368719     0.80000
N8          N  0.80658675  0.14398906  0.66655561    -0.78300
C9          C  0.80110016  0.16884261  0.67732883     0.82500
N10         N  0.76311392  0.15138363  0.68553831    -0.78200
C11         C  0.73037890  0.10955421  0.68266672     0.82600
N12         N  0.73612161  0.08503545  0.67174328    -0.80000
C13         C  0.47892357  0.74822280  0.83733020     0.80000
N14         N  0.48477190  0.78844134  0.84074806    -0.78300
C15         C  0.51079934  0.81248681  0.85268854     0.82500
N16         N  0.53097969  0.79559970  0.86144914    -0.78200
C17         C  0.52459070  0.75476973  0.85835660     0.82600
N18         N  0.49898919  0.73140762  0.84614352    -0.80000
C19         C  0.59367228  0.74363469  0.88838298     0.80000
N20         N  0.57338434  0.76045686  0.87969484    -0.78300
C21         C  0.54591368  0.73625670  0.86798076     0.82500
N22         N  0.53884293  0.69512395  0.86502191    -0.78200
C23         C  0.55877918  0.67796018  0.87375753     0.82600
N24         N  0.58604289  0.70262412  0.88531360    -0.80000
C25         C  0.83317329  0.42822989  0.49912864     0.80000
N26         N  0.84637659  0.40776364  0.50932497    -0.78300
C27         C  0.87004754  0.42957682  0.52210882     0.82500
N28         N  0.87994775  0.47183430  0.52474723    -0.78200
C29         C  0.86637870  0.49231616  0.51465480     0.82600
N30         N  0.84320275  0.47009367  0.50196973    -0.80000
C31         C  0.93005591  0.41159096  0.55395717     0.80000
N32         N  0.91316405  0.43083500  0.54472599    -0.78300
C33         C  0.88640451  0.40808143  0.53263997     0.82500
N34         N  0.87664792  0.36599053  0.52983297    -0.78200
C35         C  0.89270289  0.34637643  0.53923807     0.82600
N36         N  0.91929600  0.36948750  0.55114329    -0.80000
C37         C  0.43694483  0.43982243  0.99373940     0.80000
N38         N  0.39915316  0.42216556  0.00220162    -0.78300
C39         C  0.39491180  0.44589855  0.01392447     0.82500
N40         N  0.42857956  0.48705033  0.01714701    -0.78200
C41         C  0.46626680  0.50466817  0.00876855     0.82600
N42         N  0.46989454  0.48085286  0.99716043    -0.80000
C43         C  0.31082587  0.43667098  0.04206303     0.80000
N44         N  0.27679410  0.39631702  0.03841067    -0.78300
C45         C  0.28063071  0.37161641  0.02713010     0.82500
N46         N  0.31926498  0.38757501  0.01936689    -0.78200
C47         C  0.35365207  0.42811385  0.02277886     0.82600
N48         N  0.34948512  0.45244884  0.03425439    -0.80000
C49         C  0.99294820  0.75088128  0.38514695     0.80000
N50         N  0.95919630  0.70962290  0.38238925    -0.78300
C51         C  0.95868714  0.68708402  0.36956473     0.82500
N52         N  0.99294543  0.70611634  0.35950931    -0.78200
C53         C  0.02713560  0.74731673  0.36220131     0.82600
N54         N  0.02692766  0.76980338  0.37499561    -0.80000
C55         C  0.10519471  0.75949886  0.33114380     0.80000
N56         N  0.06877147  0.74199651  0.34028016    -0.78300
C57         C  0.06526290  0.76657859  0.35179667     0.82500
N58         N  0.09820249  0.80864549  0.35412572    -0.78200
C59         C  0.13414037  0.82656167  0.34484299     0.82600
N60         N  0.13747164  0.80172144  0.33352935    -0.80000
C61         C  0.14998780  0.08231366  0.16953859     0.80000
N62         N  0.17629051  0.06894669  0.17627187    -0.78300
C63         C  0.20573313  0.09392923  0.18741929     0.82500
N64         N  0.20925810  0.13277111  0.19169473    -0.78200
C65         C  0.18310341  0.14635380  0.18504431     0.82600
N66         N  0.15372475  0.12100286  0.17403953    -0.80000
C67         C  0.28826307  0.08916182  0.21296614     0.80000
N68         N  0.26375247  0.10407119  0.20577741    -0.78300
C69         C  0.23347435  0.07885156  0.19482806     0.82500
N70         N  0.22707297  0.03830715  0.19136788    -0.78200
C71         C  0.25083116  0.02315432  0.19876079     0.82600
N72         N  0.28110557  0.04862505  0.20943372    -0.80000
C73         C  0.04481610  0.69801621  0.83069797     0.80000
N74         N  0.06172297  0.73613806  0.83890145    -0.78300
C75         C  0.04093085  0.73822643  0.85193162     0.82500
N76         N  0.00336278  0.70196811  0.85673943    -0.78200
C77         C  0.98714717  0.66354860  0.84880713     0.82600
N78         N  0.00790253  0.66208677  0.83584087    -0.80000
C79         C  0.05013601  0.82337600  0.87963274     0.80000
N80         N  0.08971749  0.85776040  0.87545351    -0.78300
C81         C  0.11386624  0.85356318  0.86407382     0.82500
N82         N  0.09815550  0.81453416  0.85664109    -0.78200
C83         C  0.05822351  0.77991434  0.86047243     0.82600
N84         N  0.03441580  0.78427146  0.87208616    -0.80000
C85         C  0.71106651  0.63736723  0.66441171     0.67400
N86         N  0.72774316  0.61596315  0.67255295    -0.78300
C87         C  0.70467464  0.58892716  0.68448468     0.82500
N88         N  0.66462120  0.58309872  0.68825428    -0.78200
C89         C  0.64765109  0.60406643  0.68012421     0.82600
N90         N  0.67078899  0.63105082  0.66825052    -0.80000
C91         C  0.71798529  0.51916679  0.71365139     0.80000
N92         N  0.70128001  0.54087392  0.70569263    -0.78300
C93         C  0.72265490  0.56553834  0.69307488     0.82500
N94         N  0.76105961  0.56877328  0.68844946    -0.78200
C95         C  0.77779627  0.54690785  0.69616597     0.82600
N96         N  0.75613699  0.52220236  0.70868430    -0.80000
C97         C  0.38234307  0.35532667  0.50048806     0.80000
N98         N  0.34376830  0.32027390  0.50518880    -0.78300
C99         C  0.32039044  0.32361670  0.51708806     0.82500
N100        N  0.33591380  0.36272466  0.52441117    -0.78200
C101        C  0.37443861  0.39814163  0.51995797     0.82600
N102        N  0.39757982  0.39446511  0.50795433    -0.80000
C103        C  0.38485500  0.48106221  0.54877391     0.80000
N104        N  0.42638705  0.51366074  0.54582836    -0.78300
C105        C  0.45074193  0.51005866  0.53442399     0.82500
N106        N  0.43329134  0.47291431  0.52574995    -0.78200
C107        C  0.39187783  0.43941720  0.52868069     0.82600
N108        N  0.36772516  0.44338971  0.54029043    -0.80000
C109        C  0.37766318  0.96954271  0.99661509     0.80000
N110        N  0.33704946  0.96272467  0.00002582    -0.78300
C111        C  0.31386716  0.93768663  0.01224777     0.82500
N112        N  0.33158689  0.91888709  0.02126131    -0.78200
C113        C  0.37230378  0.92529075  0.01805470     0.82600
N114        N  0.39523493  0.95054245  0.00566760    -0.80000
C115        C  0.39155386  0.87054013  0.05152884     0.80000
N116        N  0.43271724  0.87866271  0.04823194    -0.78300
C117        C  0.45413399  0.90066633  0.03525069     0.82500
N118        N  0.43388800  0.91509180  0.02544649    -0.78200
C119        C  0.39265301  0.90738306  0.02850717     0.82600
N120        N  0.37133745  0.88477349  0.04154071    -0.80000
C121        C  0.06106430  0.20156627  0.38347335     0.80000
N122        N  0.09861292  0.20429540  0.37817719    -0.78300
C123        C  0.12173718  0.23155795  0.36643893     0.82500
N124        N  0.10717348  0.25681363  0.35980552    -0.78200
C125        C  0.06900583  0.25394520  0.36465606     0.82600
N126        N  0.04589579  0.22627523  0.37654489    -0.80000
C127        C  0.06284663  0.33233256  0.33752410     0.80000
N128        N  0.02465913  0.32960782  0.34209634    -0.78300
C129        C  0.00058043  0.30312480  0.35392724     0.82500
N130        N  0.01509320  0.27858264  0.36131061    -0.78200
C131        C  0.05350831  0.28110145  0.35696890     0.82600
N132        N  0.07707638  0.30779251  0.34500648    -0.80000
C133        C  0.72539477  0.13948980  0.21904515     0.80000
N134        N  0.70493696  0.10694793  0.20834828    -0.78300
C135        C  0.72586851  0.10812215  0.19494923     0.82500
N136        N  0.76707620  0.14215345  0.19220816    -0.78200
C137        C  0.78768743  0.17471729  0.20278348     0.82600
N138        N  0.76672953  0.17299530  0.21614316    -0.80000
C139        C  0.70792690  0.04190048  0.15960379     0.80000
N140        N  0.66708832  0.00726332  0.16231803    -0.78300
C141        C  0.64477102  0.00473350  0.17543853     0.82500
N142        N  0.66391297  0.03764465  0.18606303    -0.78200
C143        C  0.70471940  0.07273189  0.18345449     0.82600
N144        N  0.72668813  0.07456091  0.17026722    -0.80000
C145        C  0.49584564  0.69177055  0.33235106     0.80000
N146        N  0.50875413  0.72531963  0.34269349    -0.78300
C147        C  0.53072801  0.72613236  0.35585070     0.82500
N148        N  0.53943704  0.69312706  0.35863765    -0.78200
C149        C  0.52709844  0.65993032  0.34827490     0.82600
N150        N  0.50556852  0.65970410  0.33526052    -0.80000
C151        C  0.57795444  0.79455977  0.39107400     0.80000
N152        N  0.57086061  0.82828311  0.38801793    -0.78300
C153        C  0.55123299  0.82973258  0.37469034     0.82500
N154        N  0.53797089  0.79634264  0.36429942    -0.78200
C155        C  0.54457463  0.76204670  0.36721344     0.82600
N156        N  0.56518698  0.76162603  0.38052536    -0.80000
C157        C  0.27545769  0.14775749  0.71613929     0.80000
N158        N  0.25364660  0.10968718  0.70794013    -0.78300
C159        C  0.22582019  0.10583461  0.69626543     0.82500
N160        N  0.21968100  0.14020051  0.69283646    -0.78200
C161        C  0.24085184  0.17802447  0.70114277     0.82600
N162        N  0.26847976  0.18141486  0.71267831    -0.80000
C163        C  0.15225572  0.02287423  0.66770637     0.80000
N164        N  0.15809537  0.98856670  0.67125118    -0.78300
C165        C  0.18581804  0.99175642  0.68278384     0.82500
N166        N  0.20798136  0.03005641  0.69083541    -0.78200
C167        C  0.20225769  0.06464701  0.68742160     0.82600
N168        N  0.17462825  0.06103175  0.67576210    -0.80000
C169        C  0.43211248  0.95770292  0.49467721     0.80000
N170        N  0.39785451  0.94337056  0.50475495    -0.78300
C171        C  0.39885649  0.92463127  0.51844243     0.82500
N172        N  0.43451763  0.92085936  0.52208009    -0.78200
C173        C  0.46902402  0.93565932  0.51217271     0.82600
N174        N  0.46739766  0.95387361  0.49857649    -0.80000
C175        C  0.33144524  0.87785114  0.55371221     0.80000
N176        N  0.36330504  0.88938718  0.54286100    -0.78300
C177        C  0.36283179  0.91048294  0.52972317     0.82500
N178        N  0.32972955  0.91936151  0.52735664    -0.78200
C179        C  0.29784161  0.90813019  0.53824769     0.82600
N180        N  0.29915621  0.88758417  0.55134688    -0.80000
C181        C  0.65610082  0.51717020  0.21429109     0.80000
N182        N  0.69433733  0.54318744  0.20655982    -0.78300
C183        C  0.69622669  0.57172768  0.19543967     0.82500
N184        N  0.65979687  0.57470548  0.19229655    -0.78200
C185        C  0.62174268  0.54934133  0.20016867     0.82600
N186        N  0.62033740  0.52072426  0.21095306    -0.80000
C187        C  0.77895724  0.65376361  0.16826839     0.80000
N188        N  0.74008998  0.62774246  0.17567149    -0.78300
C189        C  0.73788989  0.59995882  0.18713839     0.82500
N190        N  0.77446626  0.59793664  0.19089035    -0.78200
C191        C  0.81323403  0.62359794  0.18347660     0.82600
N192        N  0.81494433  0.65137840  0.17229250    -0.80000
C193        C  0.81642261  0.35366955  0.00176943     0.80000
N194        N  0.81975959  0.31885946  0.00660152    -0.78300
C195        C  0.84519369  0.32188085  0.01883400     0.82500
N196        N  0.86820104  0.36097572  0.02636339    -0.78200
C197        C  0.86525421  0.39642912  0.02169704     0.82600
N198        N  0.83953402  0.39270397  0.00932934    -0.80000
C199        C  0.94261196  0.48293920  0.04869689     0.80000
N200        N  0.91778774  0.44325397  0.04169410    -0.78300
C201        C  0.89077829  0.43897897  0.02968344     0.82500
N202        N  0.88806473  0.47445481  0.02490080    -0.78200
C203        C  0.91282100  0.51416661  0.03186783     0.82600
N204        N  0.94012038  0.51809003  0.04361572    -0.80000
C205        C  0.10414326  0.29273722  0.82700994     0.80000
N206        N  0.13632719  0.28305296  0.82970128    -0.78300
C207        C  0.13530748  0.25974399  0.84232543     0.82500
N208        N  0.10122030  0.24557388  0.85242910    -0.78200
C209        C  0.06842308  0.25460651  0.84979953     0.82600
N210        N  0.07016034  0.27840445  0.83712820    -0.80000
C211        C  0.99413265  0.20237015  0.88341037     0.80000
N212        N  0.02844268  0.21538332  0.87340511    -0.78300
C213        C  0.03167460  0.23996072  0.86072308     0.82500
N214        N  0.00042932  0.25111441  0.85803290    -0.78200
C215        C  0.96662068  0.23878374  0.86804691     0.82600
N216        N  0.96378521  0.21466652  0.88064694    -0.80000
O217        O  0.55970955  0.18286640  0.81780025    -0.86700
O218        O  0.66462461  0.38617832  0.86970776    -0.86900
O219        O  0.62593108  0.33605086  0.81793452    -0.88500
O220        O  0.68526541  0.27735100  0.84643435    -0.87300
O221        O  0.66265084  0.23448913  0.86819168    -0.86900
O222        O  0.55959023  0.33407575  0.81739217    -0.88200
O223        O  0.68506643  0.36451917  0.84770916    -0.86700
O224        O  0.62494451  0.24856679  0.81737198    -0.86300
Zr225      Zr  0.62616093  0.29181038  0.83964774     2.84300
O226        O  0.62630182  0.29182643  0.86667425    -1.08300
O227        O  0.55341291  0.25578634  0.83070003    -1.09000
C228        C  0.59763652  0.21003690  0.81191009     1.06400
C229        C  0.69204744  0.39191654  0.85884175     1.06400
C230        C  0.59824799  0.34602430  0.81202348     1.09300
C231        C  0.69090160  0.25558699  0.85738923     1.07100
H232        H  0.60592891  0.35849682  0.84478486     0.32700
O233        O  0.59059178  0.32865161  0.84858347    -1.29200
H234        H  0.60396241  0.20388839  0.84475583     0.32400
O235        O  0.58924188  0.21900870  0.84851806    -1.30900
O236        O  0.54839249  0.33091505  0.89756970    -0.86700
O237        O  0.44240108  0.12565313  0.84690859    -0.88200
O238        O  0.53319571  0.36581649  0.84626434    -0.86800
O239        O  0.63427840  0.26330776  0.89712851    -0.86800
O240        O  0.57439115  0.14552306  0.86839298    -0.86500
O241        O  0.47356079  0.24970718  0.81771719    -0.86300
O242        O  0.42245994  0.23459578  0.86886134    -0.86700
O243        O  0.48127497  0.17524067  0.89745334    -0.86200
O244        O  0.44491383  0.27828101  0.84723292    -0.87200
O245        O  0.54648138  0.17502012  0.89752293    -0.86400
O246        O  0.57960736  0.38903247  0.86726602    -0.86800
O247        O  0.47507175  0.18522205  0.81707898    -0.86500
O248        O  0.53076213  0.12417351  0.84672581    -0.86200
O249        O  0.63463964  0.32871418  0.89744628    -0.86600
O250        O  0.48240730  0.26619098  0.89791904    -0.86900
O251        O  0.42278984  0.14887755  0.86866403    -0.88200
Zr252      Zr  0.59062755  0.32868447  0.87565594     2.83100
Zr253      Zr  0.51634751  0.18328375  0.83969292     2.83500
Zr254      Zr  0.51764818  0.29224538  0.83978375     2.84100
Zr255      Zr  0.58933705  0.21917025  0.87555165     2.83400
Zr256      Zr  0.48185113  0.22120118  0.87608319     2.84200
O257        O  0.51654724  0.18359207  0.86680351    -1.08800
O258        O  0.51780881  0.29359519  0.86690073    -1.08300
C259        C  0.51006870  0.30471800  0.90337467     1.06400
C260        C  0.41511948  0.12066173  0.85783116     1.09000
C261        C  0.55718637  0.39459508  0.85652428     1.06600
C262        C  0.64581760  0.30151519  0.90289748     1.06900
C263        C  0.55258368  0.11777128  0.85749305     1.06500
C264        C  0.46356251  0.21225607  0.81161686     1.06100
C265        C  0.41656715  0.25606841  0.85788271     1.06500
C266        C  0.50797076  0.16338162  0.90301346     1.06000
H267        H  0.45087254  0.20537939  0.84518283     0.32700
O268        O  0.48081026  0.22003679  0.84892134    -1.29900
H269        H  0.55455094  0.25644685  0.89612091     0.32700
O270        O  0.55436404  0.25639656  0.88494778    -1.31300
O271        O  0.80565339  0.84698791  0.98599446    -0.86700
O272        O  0.90463156  0.05196673  0.03664960    -0.86900
O273        O  0.77534311  0.94032788  0.01286878    -0.88500
O274        O  0.89283820  0.00449443  0.98563989    -0.87300
O275        O  0.95858534  0.00543686  0.98500414    -0.86900
O276        O  0.75266394  0.89529662  0.03417060    -0.88200
O277        O  0.86073123  0.02871271  0.01506419    -0.86700
O278        O  0.80404268  0.91135726  0.98578122    -0.86300
Zr279      Zr  0.84981216  0.95760379  0.00699132     2.84300
O280        O  0.92236376  0.99618301  0.01598500    -1.08300
O281        O  0.81547673  0.88543370  0.01602363    -1.09000
C282        C  0.79236591  0.87251021  0.98058934     1.06400
C283        C  0.88126590  0.05651324  0.02606891     1.06400
C284        C  0.74649922  0.91668426  0.02314142     1.09300
C285        C  0.93117780  0.01688379  0.97985206     1.07100
H286        H  0.83419016  0.97252838  0.03772963     0.32700
O287        O  0.84999529  0.95843130  0.03405813    -1.29200
H288        H  0.88690126  0.92311626  0.98646062     0.32400
O289        O  0.88723218  0.92303889  0.99764666    -1.30900
O290        O  0.96728881  0.99525389  0.06499544    -0.86700
O291        O  0.87141847  0.79419574  0.01327609    -0.88200
O292        O  0.81511874  0.93227635  0.06452656    -0.86800
O293        O  0.01644227  0.03637024  0.01329677    -0.86800
O294        O  0.96094244  0.91933610  0.98488008    -0.86500
O295        O  0.75671600  0.81288175  0.03572440    -0.86300
O296        O  0.88201617  0.84684494  0.06545818    -0.86700
O297        O  0.99672035  0.90205513  0.03566759    -0.86200
O298        O  0.81619424  0.84557586  0.06568852    -0.87200
O299        O  0.01722835  0.94493538  0.01382716    -0.86400
O300        O  0.88118271  0.99709514  0.06503938    -0.86800
O301        O  0.78012361  0.79097230  0.01446333    -0.86500
O302        O  0.89713835  0.85263084  0.98454669    -0.86200
O303        O  0.99438972  0.05698806  0.03514909    -0.86600
O304        O  0.96754125  0.93018332  0.06502024    -0.86900
O305        O  0.91288868  0.81652452  0.03536400    -0.88200
Zr306      Zr  0.92313789  0.99577525  0.04304649     2.83100
Zr307      Zr  0.85301263  0.85057002  0.00696750     2.83500
Zr308      Zr  0.81444716  0.88614486  0.04303431     2.84100
Zr309      Zr  0.95968100  0.96148894  0.00686773     2.83400
Zr310      Zr  0.92424450  0.88831677  0.04293820     2.84200
O311        O  0.92527107  0.88898425  0.01593308    -1.08800
O312        O  0.88711949  0.92334509  0.05202245    -1.08300
C313        C  0.97846719  0.96821093  0.07072828     1.06400
C314        C  0.89345823  0.78896443  0.02420630     1.09000
C315        C  0.84236423  0.97053909  0.07032499     1.06600
C316        C  0.02162209  0.06435986  0.02395028     1.06900
C317        C  0.93520068  0.88114234  0.97894420     1.06500
C318        C  0.75150865  0.78513073  0.02498838     1.06100
C319        C  0.84428167  0.83605204  0.07152161     1.06500
C320        C  0.02336628  0.92256032  0.02442806     1.06000
H321        H  0.83730050  0.82032459  0.03793767     0.32700
O322        O  0.85155252  0.85014227  0.03412985    -1.29900
H323        H  0.99082613  0.97666492  0.03765050     0.32700
O324        O  0.96081353  0.96124394  0.03398723    -1.31300
O325        O  0.63237393  0.32612008  0.39794055    -0.86700
O326        O  0.53461863  0.12112387  0.34808899    -0.86900
O327        O  0.54796278  0.17367991  0.39841261    -0.88500
O328        O  0.66552195  0.23365839  0.36976300    -0.87300
O329        O  0.68529588  0.27470924  0.34752595    -0.86900
O330        O  0.48146961  0.17122819  0.39820857    -0.88200
O331        O  0.57961590  0.14537770  0.36942172    -0.86700
O332        O  0.63435679  0.26201733  0.39839119    -0.86300
Zr333      Zr  0.59129733  0.21759643  0.37647079     2.84300
O334        O  0.59036217  0.21537620  0.34939750    -1.08300
O335        O  0.55352736  0.25241173  0.38546753    -1.09000
C336        C  0.64460912  0.30016237  0.40388312     1.06400
C337        C  0.55758069  0.11656217  0.35885571     1.06400
C338        C  0.50912322  0.16086152  0.40385816     1.09300
C339        C  0.69274534  0.25476389  0.35867521     1.07100
H340        H  0.50399155  0.14963970  0.37149828     0.32700
O341        O  0.51835265  0.17939538  0.36761784    -1.29200
H342        H  0.65628650  0.30577024  0.37082227     0.32400
O343        O  0.62629373  0.28981373  0.36714654    -1.30900
O344        O  0.47163582  0.17489458  0.31851277    -0.86700
O345        O  0.57042378  0.38090406  0.36825460    -0.88200
O346        O  0.42259169  0.14114728  0.36939227    -0.86800
O347        O  0.62499103  0.24265803  0.31829742    -0.86800
O348        O  0.68159574  0.36310583  0.34645385    -0.86500
O349        O  0.48010322  0.25933892  0.39811137    -0.86300
O350        O  0.44315349  0.27113485  0.34711043    -0.86700
O351        O  0.56052325  0.32918483  0.31769498    -0.86200
O352        O  0.42248997  0.22939326  0.36916030    -0.87200
O353        O  0.62583588  0.32920940  0.31750106    -0.86400
O354        O  0.44501810  0.11817710  0.34825186    -0.86800
O355        O  0.54529914  0.32502506  0.39818419    -0.86500
O356        O  0.65841726  0.38461245  0.36782046    -0.86200
O357        O  0.56014041  0.17663093  0.31860096    -0.86600
O358        O  0.47201525  0.24024733  0.31778848    -0.86900
O359        O  0.52873900  0.35768220  0.34615360    -0.88200
Zr360      Zr  0.51730132  0.17764379  0.34053509     2.83100
Zr361      Zr  0.58783934  0.32425461  0.37590004     2.83500
Zr362      Zr  0.48102840  0.21484797  0.37637525     2.84100
Zr363      Zr  0.62556813  0.28752185  0.34003861     2.83400
Zr364      Zr  0.51586055  0.28498791  0.33961226     2.84200
O365        O  0.58817141  0.32286182  0.34877987    -1.08800
O366        O  0.47983059  0.21293228  0.34921985    -1.08300
C367        C  0.46065608  0.20167733  0.31239127     1.06400
C368        C  0.54850395  0.38572808  0.35713391     1.09000
C369        C  0.41676216  0.11262846  0.35885570     1.06600
C370        C  0.59812875  0.20394239  0.31281576     1.06900
C371        C  0.68598002  0.39157338  0.35683232     1.06500
C372        C  0.50687320  0.29789111  0.40375990     1.06100
C373        C  0.41600449  0.25072034  0.35826509     1.06500
C374        C  0.59866241  0.34020793  0.31187492     1.06000
H375        H  0.50038784  0.30122393  0.37035482     0.32700
O376        O  0.51566526  0.28654503  0.36674586    -1.29900
H377        H  0.55270229  0.24895276  0.31976376     0.32700
O378        O  0.55292791  0.24954179  0.33094325    -1.31300
O379        O  0.35082479  0.69777638  0.68004149    -0.86700
O380        O  0.14657608  0.59440066  0.73140373    -0.86900
O381        O  0.24323280  0.72058726  0.70221158    -0.88500
O382        O  0.29805370  0.66004233  0.73168556    -0.87300
O383        O  0.29885034  0.59533592  0.73186571    -0.86900
O384        O  0.19958495  0.69822008  0.68054464    -0.88200
O385        O  0.21084549  0.66090878  0.73123104    -0.86700
O386        O  0.32841693  0.71832979  0.70182301    -0.86300
Zr387      Zr  0.25525665  0.66055831  0.70951552     2.84300
O388        O  0.21976863  0.58837939  0.71872703    -1.08300
O389        O  0.25522445  0.66046045  0.68245741    -1.09000
C390        C  0.35656278  0.72504276  0.69103281     1.06400
C391        C  0.17275838  0.63315641  0.73690925     1.06400
C392        C  0.22215271  0.72668466  0.69114167     1.09300
C393        C  0.30950063  0.63343214  0.73757604     1.07100
H394        H  0.16715431  0.63901670  0.70428162     0.32700
O395        O  0.18243664  0.62440485  0.70058866    -1.29200
H396        H  0.32240791  0.64062592  0.70407633     0.32400
O397        O  0.29246822  0.62555211  0.70030297    -1.30900
O398        O  0.08975877  0.47833136  0.70287963    -0.86700
O399        O  0.29228960  0.58063372  0.65141208    -0.88200
O400        O  0.10784516  0.60659938  0.68009690    -0.86800
O401        O  0.21208638  0.50723899  0.73048381    -0.86800
O402        O  0.32958739  0.56800242  0.70270511    -0.86500
O403        O  0.22600867  0.66902497  0.65181258    -0.86300
O404        O  0.13686337  0.51553439  0.65215689    -0.86700
O405        O  0.20094424  0.45872611  0.67951255    -0.86200
O406        O  0.13882513  0.58181744  0.65158614    -0.87200
O407        O  0.24487772  0.48204336  0.70106070    -0.86400
O408        O  0.08685201  0.56200931  0.70140718    -0.86800
O409        O  0.29174486  0.66997773  0.65164883    -0.86500
O410        O  0.34977772  0.60946014  0.68056376    -0.86200
O411        O  0.14667350  0.50680201  0.73101584    -0.86600
O412        O  0.11118378  0.45642276  0.68118810    -0.86900
O413        O  0.22616995  0.51597277  0.65094297    -0.88200
Zr414      Zr  0.14757213  0.55170864  0.70942366     2.83100
Zr415      Zr  0.29166406  0.62474117  0.67316178     2.83500
Zr416      Zr  0.18269233  0.62417900  0.67353193     2.84100
Zr417      Zr  0.25642499  0.55321039  0.70929610     2.83400
Zr418      Zr  0.18343068  0.51589452  0.67321220     2.84200
O419        O  0.25602394  0.55250684  0.68222853    -1.08800
O420        O  0.14689719  0.55153775  0.68239487    -1.08300
C421        C  0.08369508  0.45036259  0.69216693     1.06400
C422        C  0.26480136  0.54280787  0.64546552     1.09000
C423        C  0.07949495  0.58277428  0.69055750     1.06600
C424        C  0.17399340  0.49558528  0.73631861     1.06900
C425        C  0.35663663  0.58877256  0.69160915     1.06500
C426        C  0.26460244  0.68139422  0.64623622     1.06100
C427        C  0.12612182  0.54283113  0.64641527     1.06500
C428        C  0.22429047  0.45411284  0.69011986     1.06000
H429        H  0.21887366  0.58849369  0.65289814     0.32700
O430        O  0.21905713  0.58838388  0.66407680    -1.29900
H431        H  0.16949195  0.48580885  0.70394768     0.32700
O432        O  0.18394386  0.51579556  0.70028190    -1.31300
O433        O  0.21878985  0.51677149  0.14946730    -0.86700
O434        O  0.33127665  0.71505567  0.20233674    -0.86900
O435        O  0.29103125  0.66614853  0.15168899    -0.88500
O436        O  0.34600661  0.60077788  0.17979006    -0.87300
O437        O  0.32221994  0.55714887  0.20141428    -0.86900
O438        O  0.22698345  0.66835650  0.15173712    -0.88200
O439        O  0.35159377  0.69124437  0.18083271    -0.86700
O440        O  0.28614741  0.57986533  0.14954941    -0.86300
Zr441      Zr  0.29004282  0.62022639  0.17309304     2.84300
O442        O  0.29006563  0.61962660  0.20017696    -1.08300
O443        O  0.21750592  0.58725790  0.16416967    -1.09000
C444        C  0.25656522  0.54339166  0.14332424     1.06400
C445        C  0.35898698  0.71970137  0.19158212     1.06400
C446        C  0.26489247  0.67860752  0.14605641     1.09300
C447        C  0.35040922  0.57765250  0.19055335     1.07100
H448        H  0.27274437  0.68896815  0.17894522     0.32700
O449        O  0.25671496  0.65894380  0.18254874    -1.29200
H450        H  0.26468208  0.53127025  0.17759341     0.32400
O451        O  0.25108949  0.54720775  0.18161817    -1.30900
O452        O  0.21169359  0.65925415  0.23129797    -0.86700
O453        O  0.10488803  0.45731550  0.17998839    -0.88200
O454        O  0.20188880  0.69886864  0.18137906    -0.86800
O455        O  0.29895138  0.59114119  0.23017059    -0.86800
O456        O  0.23267672  0.47251936  0.20109531    -0.86500
O457        O  0.13821654  0.58395494  0.15169376    -0.86300
O458        O  0.08870466  0.57128288  0.20281713    -0.86700
O459        O  0.14302161  0.50541496  0.23066859    -0.86200
O460        O  0.11282408  0.61475924  0.18117759    -0.87200
O461        O  0.20711265  0.50310994  0.23055580    -0.86400
O462        O  0.24548690  0.71890659  0.20297847    -0.86800
O463        O  0.13433845  0.51698039  0.15127135    -0.86500
O464        O  0.19027282  0.45381437  0.17920054    -0.86200
O465        O  0.29937377  0.65662848  0.23134144    -0.86600
O466        O  0.14534187  0.59485838  0.23170555    -0.86900
O467        O  0.08473499  0.48056756  0.20167165    -0.88200
Zr468      Zr  0.25641194  0.65800386  0.20963573     2.83100
Zr469      Zr  0.17838930  0.51467260  0.17275285     2.83500
Zr470      Zr  0.18395130  0.62526374  0.17371475     2.84100
Zr471      Zr  0.25103016  0.54685231  0.20877826     2.83400
Zr472      Zr  0.14496921  0.55214914  0.20940773     2.84200
O473        O  0.17839872  0.51366944  0.19985571    -1.08800
O474        O  0.18381545  0.62496024  0.20074964    -1.08300
C475        C  0.17308497  0.63331703  0.23709191     1.06400
C476        C  0.07757182  0.45243560  0.19083994     1.09000
C477        C  0.22447422  0.72622034  0.19221518     1.06600
C478        C  0.31099117  0.62928710  0.23621528     1.06900
C479        C  0.21069084  0.44566288  0.18998634     1.06500
C480        C  0.12500115  0.54552228  0.14576604     1.06100
C481        C  0.08429615  0.59399500  0.19189932     1.06500
C482        C  0.16910156  0.49279893  0.23620147     1.06000
H483        H  0.11445546  0.53898741  0.17861130     0.32700
O484        O  0.14438656  0.55256771  0.18231143    -1.29900
H485        H  0.21778853  0.58488714  0.22965690     0.32700
O486        O  0.21759991  0.58524370  0.21847441    -1.31300
O487        O  0.87736250  0.00045658  0.56363597    -0.86700
O488        O  0.77155618  0.79143583  0.51500622    -0.86900
O489        O  0.75325655  0.90346611  0.53574410    -0.88500
O490        O  0.81012746  0.84212336  0.56511247    -0.87300
O491        O  0.87582058  0.84281369  0.56550433    -0.86900
O492        O  0.77540156  0.94393982  0.51334018    -0.88200
O493        O  0.75074884  0.81594546  0.53617204    -0.86700
O494        O  0.81217788  0.93502346  0.56479243    -0.86300
Zr495      Zr  0.81095444  0.88807506  0.54347119     2.84300
O496        O  0.84547787  0.84972754  0.53483122    -1.08300
O497        O  0.84780361  0.95941644  0.53334592    -1.09000
C498        C  0.83936172  0.97443689  0.56968742     1.06400
C499        C  0.74364515  0.78730847  0.52553597     1.06400
C500        C  0.74742528  0.92361571  0.52427946     1.09300
C501        C  0.83710324  0.83073510  0.57082510     1.07100
H502        H  0.78104743  0.87121992  0.51260037     0.32700
O503        O  0.81099684  0.88602533  0.51631212    -1.29200
H504        H  0.88328656  0.92436157  0.56366034     0.32400
O505        O  0.88330698  0.92369879  0.55247695    -1.30900
O506        O  0.89036852  0.84516327  0.48657098    -0.86700
O507        O  0.99470452  0.05121534  0.53614295    -0.88200
O508        O  0.80206125  0.90999742  0.48499665    -0.86800
O509        O  0.90403393  0.81262800  0.53687240    -0.86800
O510        O  0.96175332  0.93079340  0.56511586    -0.86500
O511        O  0.86229021  0.03088625  0.51287821    -0.86300
O512        O  0.95423333  0.99657226  0.48380401    -0.86700
O513        O  0.01462815  0.94348187  0.51475916    -0.86200
O514        O  0.89013335  0.99885528  0.48360471    -0.87200
O515        O  0.99178312  0.90136511  0.53675882    -0.86400
O516        O  0.80122744  0.84444007  0.48567741    -0.86800
O517        O  0.90636280  0.05326545  0.53442331    -0.86500
O518        O  0.96237676  0.99616834  0.56508836    -0.86200
O519        O  0.85680803  0.78805240  0.51611594    -0.86600
O520        O  0.95628557  0.90975882  0.48593366    -0.86900
O521        O  0.01444764  0.02814606  0.51434459    -0.88200
Zr522      Zr  0.84571431  0.84792126  0.50776076     2.83100
Zr523      Zr  0.92012386  0.99512408  0.54246773     2.83500
Zr524      Zr  0.84789657  0.95731669  0.50620249     2.84100
Zr525      Zr  0.91828473  0.88614511  0.54348425     2.83400
Zr526      Zr  0.95510069  0.95589027  0.50674750     2.84200
O527        O  0.95537765  0.95776634  0.53381461    -1.08800
O528        O  0.88262265  0.91933797  0.49760061    -1.08300
C529        C  0.92909620  0.87069783  0.48087498     1.06400
C530        C  0.02202591  0.05596405  0.52533655     1.09000
C531        C  0.78950685  0.87079549  0.47985534     1.06600
C532        C  0.88030601  0.78346448  0.52663378     1.06900
C533        C  0.97297103  0.96887390  0.57089439     1.06500
C534        C  0.88437145  0.05904651  0.52362116     1.06100
C535        C  0.92776791  0.00817270  0.47782209     1.06500
C536        C  0.02019911  0.92253552  0.52601236     1.06000
H537        H  0.93595617  0.02386908  0.51128484     0.32700
O538        O  0.92055830  0.99420926  0.51526603    -1.29900
H539        H  0.93316416  0.86848675  0.51313030     0.32700
O540        O  0.91846757  0.88402183  0.51649564    -1.31300
C541        C  0.94231661  0.10364616  0.95108384    -0.27800
C542        C  0.96437666  0.09696843  0.93874779     0.01800
C543        C  0.97722090  0.06508922  0.94037203     0.29900
C544        C  0.96779807  0.04047364  0.95405371    -0.19600
C545        C  0.94420831  0.04598585  0.96610423    -0.29000
C546        C  0.93177074  0.07821786  0.96455868     0.43900
C547        C  0.97223536  0.12236457  0.92412084     0.05100
O548        O  0.99761084  0.05661970  0.92844677    -0.57500
H549        H  0.97734596  0.01565713  0.95496342     0.18000
O550        O  0.90903947  0.08497954  0.97610962    -0.64200
H551        H  0.93286106  0.12853160  0.95023700     0.16500
C552        C  0.93758329  0.12474110  0.91689308     0.28700
C553        C  0.94546694  0.15001113  0.90354519    -0.25100
C554        C  0.98775658  0.17370335  0.89700486    -0.24400
C555        C  0.02227476  0.17009049  0.90388261     0.40200
C556        C  0.01436862  0.14474308  0.91736570    -0.26900
O557        O  0.89540748  0.10113193  0.92249094    -0.58800
H558        H  0.91792947  0.15093709  0.89830537     0.15800
O559        O  0.06381567  0.19139345  0.89768877    -0.60200
H560        H  0.04148216  0.14329949  0.92272980     0.14300
H561        H  0.93157650  0.11056365  0.98204984     0.46100
H562        H  0.88877349  0.12326318  0.92685218     0.41500
H563        H  0.08035682  0.21872974  0.90385070     0.45000
H564        H  0.97379771  0.03064835  0.92304170     0.36400
C565        C  0.77954240  0.22864000  0.86881263    -0.27800
C566        C  0.81466654  0.25726419  0.85935602     0.01800
C567        C  0.80863252  0.28391297  0.84866548     0.29900
C568        C  0.76815403  0.28275172  0.84794140    -0.19600
C569        C  0.73298867  0.25483628  0.85773704    -0.29000
C570        C  0.73896909  0.22680493  0.86797896     0.43900
C571        C  0.85717443  0.25842395  0.86087452     0.05100
O572        O  0.84222403  0.31156800  0.83902745    -0.57500
H573        H  0.76460617  0.30425938  0.83983550     0.18000
O574        O  0.70555829  0.19740137  0.87732142    -0.64200
H575        H  0.78354585  0.20724755  0.87685333     0.16500
C576        C  0.87991189  0.26985066  0.87507147     0.28700
C577        C  0.91665449  0.26483375  0.87709476    -0.25100
C578        C  0.93157699  0.24910571  0.86500180    -0.24400
C579        C  0.91022945  0.23981561  0.85054560     0.40200
C580        C  0.87315364  0.24440748  0.84856653    -0.26900
O581        O  0.86653772  0.28628419  0.88695698    -0.58800
H582        H  0.93316305  0.27263052  0.88821340     0.15800
O583        O  0.92396797  0.22413732  0.83854165    -0.60200
H584        H  0.85578759  0.23531073  0.83761430     0.14300
H585        H  0.68867331  0.17066271  0.87088533     0.46100
H586        H  0.85224648  0.26200396  0.89456396     0.41500
H587        H  0.90856252  0.19179818  0.84002123     0.45000
H588        H  0.86108024  0.33807736  0.84533200     0.36400
C589        C  0.18077833  0.44121254  0.77315017    -0.27800
C590        C  0.13630917  0.41163429  0.77620915     0.01800
C591        C  0.10384085  0.41121693  0.76653933     0.29900
C592        C  0.11630197  0.43921274  0.75369091    -0.19600
C593        C  0.16102829  0.46739696  0.75022675    -0.29000
C594        C  0.19327383  0.46841521  0.76023026     0.43900
C595        C  0.12499677  0.37913227  0.78874519     0.05100
O596        O  0.06001329  0.38274538  0.76926234    -0.57500
H597        H  0.09096614  0.43791452  0.74618575     0.18000
O598        O  0.23726156  0.49589220  0.75754621    -0.64200
H599        H  0.20610055  0.44245721  0.78065883     0.16500
C600        C  0.14469559  0.35282495  0.78912160     0.28700
C601        C  0.13620399  0.32393612  0.80136042    -0.25100
C602        C  0.10811092  0.32048524  0.81351002    -0.24400
C603        C  0.08730392  0.34597250  0.81292513     0.40200
C604        C  0.09575046  0.37495070  0.80054805    -0.26900
O605        O  0.17306538  0.35568518  0.77767649    -0.58800
H606        H  0.15233668  0.30455555  0.80140557     0.15800
O607        O  0.05989227  0.34401786  0.82456717    -0.60200
H608        H  0.08054533  0.39519021  0.80042380     0.14300
H609        H  0.24283444  0.52553498  0.76046721     0.46100
H610        H  0.15401035  0.33590339  0.76933569     0.41500
H611        H  0.07914533  0.36742357  0.83196674     0.45000
H612        H  0.05385869  0.35432255  0.76469967     0.36400
C613        C  0.22436917  0.24704226  0.86244100    -0.27800
C614        C  0.24927312  0.24724523  0.84975362     0.01800
C615        C  0.23474150  0.24810209  0.83466893     0.29900
C616        C  0.19654932  0.25041828  0.83245071    -0.19600
C617        C  0.17246717  0.25216338  0.84514376    -0.29000
C618        C  0.18642443  0.24994539  0.86024658     0.43900
C619        C  0.29205223  0.24992685  0.85239821     0.05100
O620        O  0.25752432  0.24628422  0.82206498    -0.57500
H621        H  0.18618036  0.25161036  0.82073688     0.18000
O622        O  0.16457256  0.25274941  0.87294023    -0.64200
H623        H  0.23550593  0.24663892  0.87410040     0.16500
C624        C  0.33133149  0.28757687  0.84785029     0.28700
C625        C  0.37166331  0.28959947  0.85010143    -0.25100
C626        C  0.37370891  0.25450403  0.85703214    -0.24400
C627        C  0.33430522  0.21732532  0.86205365     0.40200
C628        C  0.29385886  0.21529320  0.85970503    -0.26900
O629        O  0.33057149  0.32248768  0.84108763    -0.58800
H630        H  0.40146786  0.31869041  0.84631404     0.15800
O631        O  0.33460967  0.18171888  0.86839278    -0.60200
H632        H  0.26374358  0.18623373  0.86329554     0.14300
H633        H  0.18019689  0.28438382  0.87576205     0.46100
H634        H  0.33043447  0.34071512  0.84981958     0.41500
H635        H  0.33453535  0.18577943  0.87974356     0.45000
H636        H  0.27227290  0.27628636  0.81756442     0.36400
C637        C  0.98633617  0.46447446  0.08653439    -0.27800
C638        C  0.02388017  0.50595900  0.08883522     0.01800
C639        C  0.03646191  0.53818734  0.07724764     0.29900
C640        C  0.01041899  0.52946997  0.06399855    -0.19600
C641        C  0.97172768  0.48869495  0.06197400    -0.29000
C642        C  0.96020226  0.45573079  0.07326088     0.43900
C643        C  0.04897252  0.51562577  0.10353280     0.05100
O644        O  0.07478433  0.57784770  0.07862128    -0.57500
H645        H  0.02035918  0.55498139  0.05532373     0.18000
O646        O  0.92260554  0.41556890  0.07178420    -0.64200
H647        H  0.97643140  0.43927025  0.09532112     0.16500
C648        C  0.05442177  0.55017937  0.11324754     0.28700
C649        C  0.07861488  0.55911560  0.12698912    -0.25100
C650        C  0.09758855  0.53376167  0.13144673    -0.24400
C651        C  0.09117244  0.49847699  0.12178321     0.40200
C652        C  0.06690171  0.48962536  0.10805003    -0.26900
O653        O  0.03596783  0.57528829  0.10946047    -0.58800
H654        H  0.08242496  0.58605627  0.13417752     0.15800
O655        O  0.10890488  0.47266474  0.12546087    -0.60200
H656        H  0.06270777  0.46274459  0.10073707     0.14300
H657        H  0.89919511  0.41903541  0.07683714     0.46100
H658        H  0.00596655  0.55959671  0.11395806     0.41500
H659        H  0.13861103  0.48754593  0.12071179     0.45000
H660        H  0.06560382  0.60008511  0.08003335     0.36400
C661        C  0.86729397  0.58866754  0.02150906    -0.27800
C662        C  0.90532762  0.63022800  0.02282995     0.01800
C663        C  0.94611589  0.63299460  0.02552467     0.29900
C664        C  0.94817554  0.59475317  0.02782655    -0.19600
C665        C  0.90996022  0.55313824  0.02723774    -0.29000
C666        C  0.86936118  0.55019565  0.02372991     0.43900
C667        C  0.90197309  0.67056130  0.02289158     0.05100
O668        O  0.98401903  0.67311439  0.02640046    -0.57500
H669        H  0.97973723  0.59769556  0.03039987     0.18000
O670        O  0.83121854  0.51019788  0.02336844    -0.64200
H671        H  0.83564745  0.58611797  0.01951730     0.16500
C672        C  0.88594607  0.68279823  0.01005537     0.28700
C673        C  0.88333819  0.72128726  0.01061066    -0.25100
C674        C  0.89665912  0.74826482  0.02390032    -0.24400
C675        C  0.91281485  0.73563713  0.03673500     0.40200
C676        C  0.91533632  0.69725566  0.03611145    -0.26900
O677        O  0.87307108  0.65759782  0.99688493    -0.58800
H678        H  0.87112285  0.73012284  0.00053189     0.15800
O679        O  0.92632728  0.76037524  0.05000594    -0.60200
H680        H  0.92753705  0.68802991  0.04610669     0.14300
H681        H  0.81997918  0.50497544  0.03413703     0.46100
H682        H  0.90076610  0.66517002  0.99139372     0.41500
H683        H  0.89937731  0.74962622  0.05637204     0.45000
H684        H  0.99461110  0.68049386  0.01558418     0.36400
C685        C  0.88983887  0.24866258  0.03225649    -0.27800
C686        C  0.85711537  0.20760869  0.02663382     0.01800
C687        C  0.81825559  0.20356177  0.02040818     0.29900
C688        C  0.81432248  0.24092104  0.01857760    -0.19600
C689        C  0.84836306  0.28272131  0.02314125    -0.29000
C690        C  0.88562573  0.28607463  0.03062193     0.43900
C691        C  0.86459434  0.16970630  0.02654629     0.05100
O692        O  0.78361871  0.16297969  0.01644313    -0.57500
H693        H  0.78456728  0.23709519  0.01334874     0.18000
O694        O  0.91877472  0.32579344  0.03590257    -0.64200
H695        H  0.91956289  0.25208919  0.03737082     0.16500
C696        C  0.85983280  0.14630395  0.01276702     0.28700
C697        C  0.86514954  0.10961008  0.01288625    -0.25100
C698        C  0.87711984  0.09638996  0.02648328    -0.24400
C699        C  0.88410747  0.12117205  0.04014931     0.40200
C700        C  0.87738974  0.15724104  0.04012155    -0.26900
O701        O  0.85066702  0.15946078  0.99901133    -0.58800
H702        H  0.86052187  0.09186277  0.00215685     0.15800
O703        O  0.89584578  0.10959212  0.05372053    -0.60200
H704        H  0.88171964  0.17523371  0.05077365     0.14300
H705        H  0.93996817  0.33823893  0.02721813     0.46100
H706        H  0.87977388  0.17992971  0.99440975     0.41500
H707        H  0.92834234  0.12827041  0.05427642     0.45000
H708        H  0.77938903  0.16412556  0.00514025     0.36400
C709        C  0.73539092  0.30260781  0.96861518    -0.27800
C710        C  0.74498177  0.33957103  0.95968467     0.01800
C711        C  0.77575763  0.38173370  0.96521495     0.29900
C712        C  0.79763512  0.38623310  0.97925887    -0.19600
C713        C  0.78951447  0.34896344  0.98788434    -0.29000
C714        C  0.75714237  0.30689714  0.98255202     0.43900
C715        C  0.72282201  0.33309762  0.94455704     0.05100
O716        O  0.78564534  0.41861127  0.95678089    -0.57500
H717        H  0.82212698  0.41884608  0.98309566     0.18000
O718        O  0.74671267  0.26944835  0.99071503    -0.64200
H719        H  0.71097809  0.27003079  0.96468971     0.16500
C720        C  0.72350558  0.30382794  0.93358903     0.28700
C721        C  0.69888436  0.29451203  0.92002014    -0.25100
C722        C  0.67370446  0.31452999  0.91694764    -0.24400
C723        C  0.67446660  0.34524769  0.92766979     0.40200
C724        C  0.69887250  0.35422911  0.94135418    -0.26900
O725        O  0.74780726  0.28372786  0.93611013    -0.58800
H726        H  0.69947556  0.27136307  0.91188336     0.15800
O727        O  0.65044512  0.36563447  0.92517317    -0.60200
H728        H  0.69787389  0.37665328  0.94972378     0.14300
H729        H  0.72437735  0.26642880  0.99837872     0.46100
H730        H  0.77795072  0.30520445  0.93255536     0.41500
H731        H  0.62300250  0.34832952  0.93120270     0.45000
H732        H  0.80735495  0.42102555  0.94894781     0.36400
C733        C  0.88918823  0.58210302  0.19730376    -0.27800
C734        C  0.92845358  0.61095323  0.18957950     0.01800
C735        C  0.93024549  0.64558644  0.18078381     0.29900
C736        C  0.89292400  0.64971503  0.17929114    -0.19600
C737        C  0.85308408  0.62016090  0.18664661    -0.29000
C738        C  0.85199196  0.58687796  0.19612146     0.43900
C739        C  0.96714286  0.60446367  0.19041302     0.05100
O740        O  0.96823476  0.67547759  0.17341528    -0.57500
H741        H  0.89532642  0.67617024  0.17216078     0.18000
O742        O  0.81450018  0.55785532  0.20389516    -0.64200
H743        H  0.88697303  0.55512506  0.20405989     0.16500
C744        C  0.98300278  0.59824378  0.20463959     0.28700
C745        C  0.02061652  0.59398167  0.20501859    -0.25100
C746        C  0.04334829  0.59639249  0.19134768    -0.24400
C747        C  0.02685357  0.60172600  0.17710403     0.40200
C748        C  0.98895642  0.60516979  0.17673366    -0.26900
O749        O  0.96248360  0.59699566  0.21827481    -0.58800
H750        H  0.03263515  0.58987493  0.21607794     0.15800
O751        O  0.04655726  0.60197127  0.16337270    -0.60200
H752        H  0.97655153  0.60843776  0.16563098     0.14300
H753        H  0.81761616  0.57090769  0.21432086     0.46100
H754        H  0.97430532  0.62820991  0.22121206     0.41500
H755        H  0.06456032  0.63343149  0.16046076     0.45000
H756        H  0.98763292  0.69535623  0.18167605     0.36400
C757        C  0.78787995  0.78137117  0.10957817    -0.27800
C758        C  0.81275586  0.76233848  0.11424437     0.01800
C759        C  0.84785861  0.76760242  0.10490409     0.29900
C760        C  0.85755930  0.79154774  0.09110027    -0.19600
C761        C  0.83271485  0.81074146  0.08628777    -0.29000
C762        C  0.79751699  0.80538323  0.09576227     0.43900
C763        C  0.80179705  0.73677685  0.12882824     0.05100
O764        O  0.87153338  0.74767097  0.10884184    -0.57500
H765        H  0.88444015  0.79454963  0.08406773     0.18000
O766        O  0.77295279  0.82433385  0.09189788    -0.64200
H767        H  0.76098813  0.77780875  0.11674192     0.16500
C768        C  0.83243988  0.75036599  0.14099546     0.28700
C769        C  0.82303007  0.72410381  0.15419574    -0.25100
C770        C  0.78338152  0.68383840  0.15549954    -0.24400
C771        C  0.75191310  0.67104631  0.14357126     0.40200
C772        C  0.76113107  0.69769114  0.13039644    -0.26900
O773        O  0.87146535  0.78953525  0.14010840    -0.58800
H774        H  0.84751337  0.73471340  0.16329716     0.15800
O775        O  0.71324078  0.63159337  0.14425477    -0.60200
H776        H  0.73725560  0.68692043  0.12109007     0.14300
H777        H  0.74546807  0.80030380  0.08731049     0.46100
H778        H  0.89479966  0.78156587  0.13958077     0.41500
H779        H  0.71981381  0.60998487  0.13938738     0.45000
H780        H  0.90159817  0.77198775  0.11129001     0.36400
C781        C  0.60821994  0.41987372  0.28032190    -0.27800
C782        C  0.63318888  0.41332383  0.26907599     0.01800
C783        C  0.64910615  0.38458635  0.27234875     0.29900
C784        C  0.63855051  0.36169245  0.28646016    -0.19600
C785        C  0.61200078  0.36694069  0.29748047    -0.29000
C786        C  0.59785340  0.39728396  0.29442109     0.43900
C787        C  0.64044858  0.43550693  0.25382824     0.05100
O788        O  0.67409258  0.37787025  0.26171728    -0.57500
H789        H  0.65012201  0.33882380  0.28859158     0.18000
O790        O  0.57400216  0.40532040  0.30515207    -0.64200
H791        H  0.59651701  0.44259985  0.27811069     0.16500
C792        C  0.60418928  0.42792395  0.24469884     0.28700
C793        C  0.61034851  0.45320170  0.23145922    -0.25100
C794        C  0.65256728  0.48662986  0.22694230    -0.24400
C795        C  0.68929925  0.49196477  0.23546436     0.40200
C796        C  0.68302111  0.46648562  0.24881661    -0.26900
O797        O  0.56246494  0.39556946  0.24862850    -0.58800
H798        H  0.58154004  0.44719989  0.22491601     0.15800
O799        O  0.73126003  0.52283872  0.23122066    -0.60200
H800        H  0.71133001  0.47224390  0.25562467     0.14300
H801        H  0.59623873  0.42888692  0.31188158     0.46100
H802        H  0.54858057  0.41109923  0.25352643     0.41500
H803        H  0.73836387  0.54941452  0.23737144     0.45000
H804        H  0.65264031  0.35539651  0.25448890     0.36400
C805        C  0.51768485  0.55283164  0.20852205    -0.27800
C806        C  0.50672142  0.56179192  0.19391570     0.01800
C807        C  0.53456366  0.56780206  0.18125817     0.29900
C808        C  0.57244987  0.56447158  0.18336878    -0.19600
C809        C  0.58264511  0.55435702  0.19796846    -0.29000
C810        C  0.55484831  0.54878042  0.21059824     0.43900
C811        C  0.46621624  0.56482452  0.19224850     0.05100
O812        O  0.52473205  0.57630847  0.16676740    -0.57500
H813        H  0.59329656  0.56880233  0.17351865     0.18000
O814        O  0.56395322  0.53993427  0.22515561    -0.64200
H815        H  0.49747418  0.54930928  0.21848078     0.16500
C816        C  0.42570293  0.53169679  0.19824305     0.28700
C817        C  0.38842423  0.53623462  0.19740515    -0.25100
C818        C  0.39041303  0.57346651  0.19057082    -0.24400
C819        C  0.43071615  0.60609390  0.18425506     0.40200
C820        C  0.46826409  0.60189127  0.18529748    -0.26900
O821        O  0.42193980  0.49406847  0.20450543    -0.58800
H822        H  0.35769763  0.51021762  0.20208371     0.15800
O823        O  0.43431753  0.64312850  0.17763509    -0.60200
H824        H  0.49927918  0.62810730  0.18089374     0.14300
H825        H  0.58224250  0.56910718  0.23008100     0.46100
H826        H  0.41695137  0.49556487  0.21572900     0.41500
H827        H  0.43384962  0.63831004  0.16631767     0.45000
H828        H  0.50707481  0.54706846  0.16181831     0.36400
C829        C  0.33528945  0.76862052  0.61649619    -0.27800
C830        C  0.30300088  0.76890245  0.60707274     0.01800
C831        C  0.25831287  0.73997827  0.61033900     0.29900
C832        C  0.24634392  0.71121060  0.62293356    -0.19600
C833        C  0.27851145  0.71108868  0.63259795    -0.29000
C834        C  0.32338945  0.74040090  0.62928931     0.43900
C835        C  0.31576801  0.80013014  0.59403200     0.05100
O836        O  0.22617499  0.73899996  0.60103084    -0.57500
H837        H  0.21169540  0.68898589  0.62513592     0.18000
O838        O  0.35590205  0.74279413  0.63872444    -0.64200
H839        H  0.36979394  0.79112495  0.61414449     0.16500
C840        C  0.30815397  0.83568148  0.59476471     0.28700
C841        C  0.31521737  0.86188782  0.58169771    -0.25100
C842        C  0.33019197  0.85333990  0.56778843    -0.24400
C843        C  0.33994167  0.81901450  0.56730782     0.40200
C844        C  0.33275950  0.79271568  0.58041574    -0.26900
O845        O  0.29399958  0.84505837  0.60826384    -0.58800
H846        H  0.30818372  0.88853130  0.58236130     0.15800
O847        O  0.35430828  0.80944263  0.55390857    -0.60200
H848        H  0.33877364  0.76539947  0.57976719     0.14300
H849        H  0.36070831  0.76530389  0.64660183     0.46100
H850        H  0.26257596  0.83556682  0.60651690     0.41500
H851        H  0.32717993  0.78828449  0.54830106     0.45000
H852        H  0.21311848  0.75355713  0.60709407     0.36400
C853        C  0.19857705  0.92110785  0.54573619    -0.27800
C854        C  0.18185225  0.91763428  0.53077134     0.01800
C855        C  0.20509498  0.91419979  0.51810479     0.29900
C856        C  0.24408469  0.91323966  0.52057056    -0.19600
C857        C  0.26009807  0.91517272  0.53563378    -0.29000
C858        C  0.23744150  0.92027247  0.54823153     0.43900
C859        C  0.14008125  0.91768313  0.52869204     0.05100
O860        O  0.18933694  0.91057909  0.50333739    -0.57500
H861        H  0.26082108  0.90922636  0.51072950     0.18000
O862        O  0.25287599  0.92435571  0.56307357    -0.64200
H863        H  0.18138468  0.92457439  0.55555291     0.16500
C864        C  0.10086218  0.88433784  0.53529533     0.28700
C865        C  0.06221587  0.88627317  0.53414662    -0.25100
C866        C  0.06188406  0.92160664  0.52666049    -0.24400
C867        C  0.10140288  0.95527272  0.52015040     0.40200
C868        C  0.13994878  0.95278989  0.52103305    -0.26900
O869        O  0.09986142  0.84927636  0.54265894    -0.58800
H870        H  0.03235986  0.85990503  0.53918802     0.15800
O871        O  0.10316379  0.99135135  0.51332850    -0.60200
H872        H  0.17019270  0.97907251  0.51617136     0.14300
H873        H  0.27172988  0.95646616  0.56479052     0.46100
H874        H  0.10037635  0.85555594  0.55386831     0.41500
H875        H  0.10842135  0.01209970  0.52193803     0.45000
H876        H  0.17094761  0.87850822  0.50142816     0.36400
C877        C  0.42000623  0.03066243  0.46490560    -0.27800
C878        C  0.45073702  0.03432738  0.45376145     0.01800
C879        C  0.47028327  0.00807388  0.45515157     0.29900
C880        C  0.46188335  0.98149518  0.46815149    -0.19600
C881        C  0.43353977  0.98000042  0.47992943    -0.29000
C882        C  0.41104880  0.00347047  0.47788494     0.43900
C883        C  0.46490410  0.06775750  0.44134680     0.05100
O884        O  0.49894502  0.00941447  0.44410161    -0.57500
H885        H  0.47876975  0.96295301  0.46921273     0.18000
O886        O  0.38297254  0.00288461  0.48900682    -0.64200
H887        H  0.40449775  0.05051748  0.46392437     0.16500
C888        C  0.43453014  0.06863148  0.43096577     0.28700
C889        C  0.44926477  0.10013148  0.41916829    -0.25100
C890        C  0.49440216  0.13050944  0.41726570    -0.24400
C891        C  0.52474945  0.12966874  0.42776200     0.40200
C892        C  0.50979749  0.09887485  0.43977203    -0.26900
O893        O  0.39056634  0.03807073  0.43195948    -0.58800
H894        H  0.42536268  0.09970498  0.41113788     0.15800
O895        O  0.56895976  0.15933472  0.42661418    -0.60200
H896        H  0.53349629  0.09901740  0.44783796     0.14300
H897        H  0.35323736  0.97976344  0.48563722     0.46100
H898        H  0.38723090  0.01149529  0.42669026     0.41500
H899        H  0.58197707  0.14278499  0.42186186     0.45000
H900        H  0.48070295  0.98475503  0.43696918     0.36400
C901        C  0.54665255  0.89876279  0.52772052    -0.27800
C902        C  0.58671932  0.93047780  0.52113979     0.01800
C903        C  0.58819398  0.96536082  0.51263177     0.29900
C904        C  0.54973729  0.96676038  0.51005876    -0.19600
C905        C  0.50928532  0.93430368  0.51617054    -0.29000
C906        C  0.50816059  0.90074237  0.52542655     0.43900
C907        C  0.62632205  0.92586943  0.52222512     0.05100
O908        O  0.62703518  0.99789360  0.50651554    -0.57500
H909        H  0.55163687  0.99341861  0.50317394     0.18000
O910        O  0.46923411  0.86812071  0.53141511    -0.64200
H911        H  0.54482405  0.87150377  0.53418495     0.16500
C912        C  0.64217155  0.92014567  0.53649983     0.28700
C913        C  0.68139492  0.91892971  0.53704340    -0.25100
C914        C  0.70517847  0.92315233  0.52345716    -0.24400
C915        C  0.68799675  0.92663942  0.50911319     0.40200
C916        C  0.64894980  0.92785330  0.50861214    -0.26900
O917        O  0.61990316  0.91616544  0.54997678    -0.58800
H918        H  0.69362034  0.91550880  0.54816139     0.15800
O919        O  0.70804805  0.92698204  0.49544897    -0.60200
H920        H  0.63622392  0.93037192  0.49747072     0.14300
H921        H  0.46814243  0.87770770  0.54211445     0.46100
H922        H  0.63358197  0.94636546  0.55426655     0.41500
H923        H  0.72384453  0.95813783  0.49204833     0.45000
H924        H  0.63991600  0.02090720  0.51463372     0.36400
C925        C  0.21581215  0.82504271  0.67648036    -0.27800
C926        C  0.21792099  0.84683855  0.69031987     0.01800
C927        C  0.22442433  0.83067820  0.70436196     0.29900
C928        C  0.22731210  0.79230725  0.70444706    -0.19600
C929        C  0.22329848  0.76936524  0.69063973    -0.29000
C930        C  0.21857587  0.78677103  0.67652871     0.43900
C931        C  0.20931858  0.88394369  0.68985225     0.05100
O932        O  0.22464853  0.85021640  0.71812235    -0.57500
H933        H  0.23079762  0.77948201  0.71542176     0.18000
O934        O  0.21575392  0.76623183  0.66272265    -0.64200
H935        H  0.21104783  0.83733189  0.66558194     0.16500
C936        C  0.24097878  0.92675985  0.69452778     0.28700
C937        C  0.23251365  0.96150639  0.69268103    -0.25100
C938        C  0.19273404  0.95418548  0.68607646    -0.24400
C939        C  0.16049843  0.91079095  0.68205040     0.40200
C940        C  0.16911155  0.87638484  0.68382507    -0.26900
O941        O  0.28068677  0.93524123  0.70047677    -0.58800
H942        H  0.25772956  0.99443637  0.69593988     0.15800
O943        O  0.12034792  0.90141981  0.67629582    -0.60200
H944        H  0.14424796  0.84347161  0.68037271     0.14300
H945        H  0.24632252  0.78050372  0.65873419     0.46100
H946        H  0.29894303  0.93777184  0.69136546     0.41500
H947        H  0.10195398  0.89742903  0.68552474     0.45000
H948        H  0.25596256  0.86689672  0.72133874     0.36400
C949        C  0.03554606  0.02925072  0.60747735    -0.27800
C950        C  0.04642917  0.99893604  0.61362091     0.01800
C951        C  0.03425297  0.95987436  0.60541551     0.29900
C952        C  0.01057912  0.95095975  0.59166969    -0.19600
C953        C  0.99926026  0.98093330  0.58543038    -0.29000
C954        C  0.01273353  0.02087751  0.59340154     0.43900
C955        C  0.07117730  0.00802953  0.62838283     0.05100
O956        O  0.04583075  0.93021230  0.61063036    -0.57500
H957        H  0.00138334  0.92023044  0.58585349     0.18000
O958        O  0.00349994  0.05177525  0.58771735    -0.64200
H959        H  0.04466096  0.05950347  0.61362413     0.16500
C960        C  0.11120101  0.04760012  0.63074171     0.28700
C961        C  0.13633451  0.05303100  0.64403301    -0.25100
C962        C  0.12280531  0.01881924  0.65483764    -0.24400
C963        C  0.08220878  0.97987134  0.65271155     0.40200
C964        C  0.05633554  0.97515226  0.63976618    -0.26900
O965        O  0.12707328  0.08029847  0.61981727    -0.58800
H966        H  0.16758669  0.08314248  0.64548361     0.15800
O967        O  0.06733332  0.94640421  0.66332220    -0.60200
H968        H  0.02514042  0.94494741  0.63835214     0.14300
H969        H  0.03034473  0.07303849  0.58201175     0.46100
H970        H  0.14353244  0.07247685  0.61238111     0.41500
H971        H  0.07103315  0.92311192  0.65828885     0.45000
H972        H  0.07532617  0.94009995  0.60615416     0.36400
C973        C  0.22577712  0.27577313  0.70782422    -0.27800
C974        C  0.22931903  0.29220173  0.69280146     0.01800
C975        C  0.23414461  0.26937046  0.68025442     0.29900
C976        C  0.23617739  0.23098338  0.68294064    -0.19600
C977        C  0.23387101  0.21539480  0.69807510    -0.29000
C978        C  0.22793127  0.23778200  0.71050930     0.43900
C979        C  0.22976786  0.33424973  0.69075527     0.05100
O980        O  0.23979487  0.28589733  0.66552987    -0.57500
H981        H  0.24134437  0.21444483  0.67328499     0.18000
O982        O  0.22453834  0.22295855  0.72540378    -0.64200
H983        H  0.22170594  0.29281697  0.71756588     0.16500
C984        C  0.19720649  0.33681685  0.68208544     0.28700
C985        C  0.19657736  0.37635116  0.68153786    -0.25100
C986        C  0.22748783  0.41351890  0.68991453    -0.24400
C987        C  0.26038041  0.41075071  0.69845856     0.40200
C988        C  0.26123557  0.37148705  0.69878574    -0.26900
O989        O  0.16478520  0.30047335  0.67463742    -0.58800
H990        H  0.17077969  0.37733526  0.67499508     0.15800
O991        O  0.29139459  0.44580333  0.70686094    -0.60200
H992        H  0.28626696  0.36984145  0.70560496     0.14300
H993        H  0.19320239  0.19995066  0.72664744     0.46100
H994        H  0.14365290  0.28248201  0.68284536     0.41500
H995        H  0.31642758  0.46223436  0.69967802     0.45000
H996        H  0.21122686  0.26733111  0.66024890     0.36400
C997        C  0.41778263  0.16629835  0.77159219    -0.27800
C998        C  0.38476551  0.17738230  0.77007750     0.01800
C999        C  0.37690479  0.19863254  0.78245218     0.29900
C1000       C  0.40282865  0.20977877  0.79585874    -0.19600
C1001       C  0.43636023  0.19935777  0.79733664    -0.29000
C1002       C  0.44341182  0.17700109  0.78510613     0.43900
C1003       C  0.36010402  0.16909155  0.75531576     0.05100
O1004       O  0.34283132  0.20713571  0.78170459    -0.57500
H1005       H  0.39629067  0.22618994  0.80522541     0.18000
O1006       O  0.47680833  0.16760444  0.78589457    -0.64200
H1007       H  0.42440743  0.15026727  0.76212327     0.16500
C1008       C  0.36252404  0.20450941  0.74696452     0.28700
C1009       C  0.33603933  0.19668938  0.73394554    -0.25100
C1010       C  0.30650693  0.15366759  0.72889134    -0.24400
C1011       C  0.30641387  0.11813311  0.73659826     0.40200
C1012       C  0.33312117  0.12606833  0.74974041    -0.26900
O1013       O  0.39154042  0.24705932  0.75131171    -0.58800
H1014       H  0.33834815  0.22479355  0.72792356     0.15800
O1015       O  0.28006988  0.07568045  0.73160602    -0.60200
H1016       H  0.33173446  0.09851723  0.75586604     0.14300
H1017       H  0.46280576  0.13690079  0.78971932     0.46100
H1018       H  0.37315714  0.25985943  0.75440758     0.41500
H1019       H  0.25326313  0.06360537  0.73811385     0.45000
H1020       H  0.35669701  0.23963049  0.78194945     0.36400
C1021       C  0.55042105  0.92396284  0.35323337    -0.27800
C1022       C  0.55460473  0.95169359  0.36558581     0.01800
C1023       C  0.55443430  0.93776008  0.38083102     0.29900
C1024       C  0.55088452  0.89691797  0.38356584    -0.19600
C1025       C  0.54847311  0.86963854  0.37124279    -0.29000
C1026       C  0.54783410  0.88339280  0.35593596     0.43900
C1027       C  0.55754553  0.99449350  0.36258124     0.05100
O1028       O  0.55666659  0.96348120  0.39313747    -0.57500
H1029       H  0.55088449  0.88699680  0.39543138     0.18000
O1030       O  0.54613205  0.85829697  0.34351912    -0.64200
H1031       H  0.55023082  0.93431694  0.34144136     0.16500
C1032       C  0.59461824  0.03427956  0.36721564     0.28700
C1033       C  0.59463647  0.07393146  0.36567749    -0.25100
C1034       C  0.55810673  0.07468488  0.35937078    -0.24400
C1035       C  0.52158151  0.03481151  0.35430337     0.40200
C1036       C  0.52171269  0.99526657  0.35582468    -0.26900
O1037       O  0.63064260  0.03461353  0.37349989    -0.58800
H1038       H  0.62320540  0.10413678  0.36952536     0.15800
O1039       O  0.48472845  0.03370211  0.34847019    -0.60200
H1040       H  0.49295658  0.96479895  0.35227734     0.14300
H1041       H  0.57728973  0.86885611  0.34080011     0.46100
H1042       H  0.64955961  0.03744368  0.36455958     0.41500
H1043       H  0.46710960  0.03216770  0.35765726     0.45000
H1044       H  0.58681948  0.97567918  0.39738053     0.36400
C1045       C  0.70138237  0.79590548  0.45073739    -0.27800
C1046       C  0.69573780  0.82671502  0.44224781     0.01800
C1047       C  0.72257977  0.87173616  0.44559041     0.29900
C1048       C  0.75341138  0.88542885  0.45757082    -0.19600
C1049       C  0.75857780  0.85483530  0.46645480    -0.29000
C1050       C  0.73257465  0.80955328  0.46272258     0.43900
C1051       C  0.66166145  0.81233653  0.42999056     0.05100
O1052       O  0.71868719  0.90275080  0.43722393    -0.57500
H1053       H  0.77319737  0.92032685  0.45994531     0.18000
O1054       O  0.73571792  0.77815078  0.47113478    -0.64200
H1055       H  0.68091560  0.76111537  0.44828115     0.16500
C1056       C  0.66377609  0.79082047  0.41656888     0.28700
C1057       C  0.63455912  0.78281351  0.40427220    -0.25100
C1058       C  0.60338550  0.79663178  0.40506789    -0.24400
C1059       C  0.60029481  0.81669272  0.41879154     0.40200
C1060       C  0.62889625  0.82383183  0.43115663    -0.26900
O1061       O  0.69653604  0.78078187  0.41486596    -0.58800
H1062       H  0.63800057  0.76803778  0.39375806     0.15800
O1063       O  0.56951344  0.82958850  0.42021805    -0.60200
H1064       H  0.62658495  0.83996720  0.44150437     0.14300
H1065       H  0.75453236  0.77047782  0.46486133     0.46100
H1066       H  0.68249451  0.74894905  0.41722001     0.41500
H1067       H  0.58612177  0.86205808  0.41906446     0.45000
H1068       H  0.73944174  0.91025939  0.42845651     0.36400
C1069       C  0.51011213  0.46728783  0.34841281    -0.27800
C1070       C  0.54167578  0.50483198  0.35628114     0.01800
C1071       C  0.57470164  0.50287094  0.36481231     0.29900
C1072       C  0.57631216  0.46385727  0.36518297    -0.19600
C1073       C  0.54538804  0.42636200  0.35698237    -0.29000
C1074       C  0.51154940  0.42828783  0.34876390     0.43900
C1075       C  0.54118319  0.54647088  0.35466546     0.05100
O1076       O  0.60617228  0.53923938  0.37252107    -0.57500
H1077       H  0.60236421  0.46328947  0.37168536     0.18000
O1078       O  0.47933603  0.39222256  0.34114202    -0.64200
H1079       H  0.48428140  0.46833041  0.34189910     0.16500
C1080       C  0.54694588  0.56597892  0.34002049     0.28700
C1081       C  0.54358726  0.60364677  0.33826328    -0.25100
C1082       C  0.53519118  0.62305578  0.35102747    -0.24400
C1083       C  0.53106950  0.60449804  0.36583655     0.40200
C1084       C  0.53404176  0.56635632  0.36756909    -0.26900
O1085       O  0.55543936  0.54811113  0.32729818    -0.58800
H1086       H  0.54723655  0.61758637  0.32680795     0.15800
O1087       O  0.52251816  0.62228883  0.37856420    -0.60200
H1088       H  0.52962959  0.55161925  0.37891436     0.14300
H1089       H  0.45702298  0.37523730  0.34916831     0.46100
H1090       H  0.58778521  0.56054535  0.32733447     0.41500
H1091       H  0.49009842  0.60928977  0.37868287     0.45000
H1092       H  0.62974679  0.55558876  0.36481013     0.36400
C1093       C  0.44322340  0.71663391  0.29784715    -0.27800
C1094       C  0.41838030  0.67444131  0.29131568     0.01800
C1095       C  0.41773673  0.63856473  0.29871936     0.29900
C1096       C  0.44297493  0.64514747  0.31196398    -0.19600
C1097       C  0.46884952  0.68731056  0.31843509    -0.29000
C1098       C  0.46834548  0.72325809  0.31133421     0.43900
C1099       C  0.39344491  0.66722945  0.27669302     0.05100
O1100       O  0.39221767  0.59664290  0.29310798    -0.57500
H1101       H  0.44179118  0.61666549  0.31727387     0.18000
O1102       O  0.49263759  0.76492456  0.31726674    -0.64200
H1103       H  0.44381780  0.74457070  0.29231367     0.16500
C1104       C  0.35910102  0.67668328  0.27555280     0.28700
C1105       C  0.33284571  0.66468881  0.26220690    -0.25100
C1106       C  0.34016463  0.64295841  0.24990548    -0.24400
C1107       C  0.37553031  0.63498172  0.25082736     0.40200
C1108       C  0.40193869  0.64727146  0.26410829    -0.26900
O1109       O  0.34923391  0.69507845  0.28777691    -0.58800
H1110       H  0.30583598  0.67121732  0.26166450     0.15800
O1111       O  0.38544657  0.61659158  0.23860362    -0.60200
H1112       H  0.42876468  0.64048518  0.26471544     0.14300
H1113       H  0.52174153  0.77765960  0.31214144     0.46100
H1114       H  0.36229634  0.72662859  0.28509997     0.41500
H1115       H  0.37320785  0.58522782  0.24140734     0.45000
H1116       H  0.36311078  0.58535934  0.29811419     0.36400
C1117       C  0.77738184  0.97101616  0.10525011    -0.27800
C1118       C  0.79339608  0.01612958  0.10731548     0.01800
C1119       C  0.82825931  0.04652702  0.09798456     0.29900
C1120       C  0.84513279  0.03138127  0.08632747    -0.19600
C1121       C  0.82745962  0.98596960  0.08375125    -0.29000
C1122       C  0.79435673  0.95591662  0.09374011     0.43900
C1123       C  0.77299612  0.03006562  0.11937841     0.05100
O1124       O  0.84526117  0.09090066  0.09989553    -0.57500
H1125       H  0.87114485  0.05524760  0.07899135     0.18000
O1126       O  0.77876902  0.91165266  0.09255277    -0.64200
H1127       H  0.75157838  0.94725767  0.11269919     0.16500
C1128       C  0.72709019  0.01219893  0.11958342     0.28700
C1129       C  0.70679745  0.01800327  0.13250134    -0.25100
C1130       C  0.73161114  0.04236421  0.14533541    -0.24400
C1131       C  0.77803379  0.06364461  0.14455475     0.40200
C1132       C  0.79835134  0.05705329  0.13166437    -0.26900
O1133       O  0.70152784  0.98735970  0.10743813    -0.58800
H1134       H  0.67123451  0.00236193  0.13260208     0.15800
O1135       O  0.80368691  0.08803083  0.15674917    -0.60200
H1136       H  0.83375077  0.07111366  0.13164670     0.14300
H1137       H  0.79900942  0.90641421  0.09902409     0.46100
H1138       H  0.70006673  0.00867263  0.10030122     0.41500
H1139       H  0.81274969  0.11893577  0.15418313     0.45000
H1140       H  0.82778236  0.09861531  0.09289901     0.36400
C1141       C  0.53552368  0.89886508  0.16941040    -0.27800
C1142       C  0.52174999  0.88593008  0.18469058     0.01800
C1143       C  0.54758778  0.91311494  0.19691354     0.29900
C1144       C  0.58687587  0.95235541  0.19375473    -0.19600
C1145       C  0.60123528  0.96501874  0.17844806    -0.29000
C1146       C  0.57477229  0.93790785  0.16621560     0.43900
C1147       C  0.48099830  0.84329916  0.18759647     0.05100
O1148       O  0.53602028  0.90027820  0.21197738    -0.57500
H1149       H  0.60682606  0.97216090  0.20335569     0.18000
O1150       O  0.58634764  0.94967731  0.15106837    -0.64200
H1151       H  0.51573985  0.87843434  0.15988299     0.16500
C1152       C  0.44443756  0.84114074  0.19512932     0.28700
C1153       C  0.40555568  0.80053219  0.19694659    -0.25100
C1154       C  0.40207529  0.76154792  0.19110401    -0.24400
C1155       C  0.43930901  0.76385054  0.18392712     0.40200
C1156       C  0.47805183  0.80440982  0.18212200    -0.26900
O1157       O  0.44577353  0.87870215  0.20025467    -0.58800
H1158       H  0.37748133  0.79986602  0.20240084     0.15800
O1159       O  0.43835136  0.72664775  0.17865411    -0.60200
H1160       H  0.50600333  0.80550636  0.17638488     0.14300
H1161       H  0.59931016  0.93179855  0.14753060     0.46100
H1162       H  0.43971107  0.89143817  0.19098468     0.41500
H1163       H  0.45497672  0.72025440  0.18650262     0.45000
H1164       H  0.52463322  0.91908193  0.21598452     0.36400
C1165       C  0.61389614  0.13373274  0.28277513    -0.27800
C1166       C  0.64412158  0.16613573  0.27273253     0.01800
C1167       C  0.65666289  0.21047202  0.27532146     0.29900
C1168       C  0.64081102  0.22213087  0.28824927    -0.19600
C1169       C  0.61212350  0.19005992  0.29875484    -0.29000
C1170       C  0.59794269  0.14535771  0.29573267     0.43900
C1171       C  0.66406736  0.15411690  0.25991265     0.05100
O1172       O  0.68358417  0.24243686  0.26501108    -0.57500
H1173       H  0.65110804  0.25648186  0.29005432     0.18000
O1174       O  0.56951574  0.11283935  0.30556702    -0.64200
H1175       H  0.60373087  0.09947405  0.28083407     0.16500
C1176       C  0.71003029  0.17304885  0.25904240     0.28700
C1177       C  0.72920965  0.16658344  0.24592797    -0.25100
C1178       C  0.70320324  0.14031024  0.23357086    -0.24400
C1179       C  0.65690245  0.11821295  0.23505733     0.40200
C1180       C  0.63768258  0.12529740  0.24817508    -0.26900
O1181       O  0.73664734  0.19888622  0.27082866    -0.58800
H1182       H  0.76478738  0.18292411  0.24535214     0.15800
O1183       O  0.63010559  0.09090130  0.22359422    -0.60200
H1184       H  0.60217535  0.10967363  0.24888521     0.14300
H1185       H  0.58849804  0.11038542  0.31353294     0.46100
H1186       H  0.73507579  0.17798328  0.27885187     0.41500
H1187       H  0.62315803  0.10964404  0.21696902     0.45000
H1188       H  0.71173244  0.26078317  0.27057364     0.36400
C1189       C  0.95854464  0.36821082  0.19906513    -0.27800
C1190       C  0.95619117  0.32984165  0.19333708     0.01800
C1191       C  0.99292964  0.33210266  0.18601355     0.29900
C1192       C  0.03199839  0.37251300  0.18486406    -0.19600
C1193       C  0.03498847  0.41091071  0.19108178    -0.29000
C1194       C  0.99752101  0.40858211  0.19799976     0.43900
C1195       C  0.91529695  0.28763631  0.19552263     0.05100
O1196       O  0.99124802  0.29492622  0.18026313    -0.57500
H1197       H  0.06037786  0.37352659  0.17951919     0.18000
O1198       O  0.99825260  0.44567387  0.20337808    -0.64200
H1199       H  0.93003204  0.36673329  0.20448925     0.16500
C1200       C  0.90074730  0.27152065  0.21050923     0.28700
C1201       C  0.85950885  0.23417992  0.21263601    -0.25100
C1202       C  0.83236859  0.21215287  0.19992198    -0.24400
C1203       C  0.84774078  0.22764107  0.18483202     0.40200
C1204       C  0.88913822  0.26510320  0.18273377    -0.26900
O1205       O  0.92621672  0.29290347  0.22315616    -0.58800
H1206       H  0.84859653  0.22268790  0.22431240     0.15800
O1207       O  0.82199213  0.20766760  0.17211118    -0.60200
H1208       H  0.90012739  0.27759717  0.17115307     0.14300
H1209       H  0.00116653  0.44494371  0.21477265     0.46100
H1210       H  0.93903130  0.27476031  0.22654010     0.41500
H1211       H  0.80383628  0.22176458  0.17076750     0.45000
H1212       H  0.99721792  0.28116905  0.18925273     0.36400
C1213       C  0.90164172  0.31973291  0.35374989    -0.27800
C1214       C  0.86910973  0.28033234  0.36039882     0.01800
C1215       C  0.88104828  0.25045668  0.36631203     0.29900
C1216       C  0.92454989  0.25933800  0.36485899    -0.19600
C1217       C  0.95671903  0.29775847  0.35746064    -0.29000
C1218       C  0.94499231  0.32862274  0.35223186     0.43900
C1219       C  0.82262346  0.27013621  0.36013066     0.05100
O1220       O  0.84976711  0.21100576  0.37243499    -0.57500
H1221       H  0.93247531  0.23496245  0.36889241     0.18000
O1222       O  0.97553808  0.36764601  0.34560958    -0.64200
H1223       H  0.89312696  0.34340756  0.34938574     0.16500
C1224       C  0.79777715  0.26172527  0.37377651     0.28700
C1225       C  0.75493972  0.25509768  0.37310701    -0.25100
C1226       C  0.73636163  0.25736673  0.35893879    -0.24400
C1227       C  0.76085620  0.26420364  0.34523254     0.40200
C1228       C  0.80353911  0.27079113  0.34593584    -0.26900
O1229       O  0.81556122  0.26146360  0.38787608    -0.58800
H1230       H  0.73689063  0.24985472  0.38379780     0.15800
O1231       O  0.74363012  0.26482391  0.33104851    -0.60200
H1232       H  0.82203080  0.27670934  0.33530773     0.14300
H1233       H  0.97002907  0.36337164  0.33431068     0.46100
H1234       H  0.83044371  0.29242051  0.39148834     0.41500
H1235       H  0.72416005  0.23346282  0.32824865     0.45000
H1236       H  0.85652273  0.21292969  0.38364691     0.36400
C1237       C  0.09910982  0.41956724  0.26914623    -0.27800
C1238       C  0.13151763  0.42304374  0.27950744     0.01800
C1239       C  0.17596182  0.44646708  0.27498672     0.29900
C1240       C  0.18750534  0.46729540  0.26055119    -0.19600
C1241       C  0.15526815  0.46590073  0.25050867    -0.29000
C1242       C  0.11058210  0.44079997  0.25480171     0.43900
C1243       C  0.11829671  0.40326919  0.29514036     0.05100
O1244       O  0.20849451  0.45063921  0.28482046    -0.57500
H1245       H  0.22205827  0.48625606  0.25753578     0.18000
O1246       O  0.07784989  0.43737858  0.24522105    -0.64200
H1247       H  0.06464498  0.40070510  0.27228577     0.16500
C1248       C  0.09179315  0.41310808  0.30458048     0.28700
C1249       C  0.07592429  0.39125285  0.31865597    -0.25100
C1250       C  0.08598339  0.35925248  0.32368601    -0.24400
C1251       C  0.11496119  0.35150448  0.31466422     0.40200
C1252       C  0.13070834  0.37334663  0.30049281    -0.26900
O1253       O  0.08194187  0.44475365  0.30024435    -0.58800
H1254       H  0.05491400  0.39896550  0.32552460     0.15800
O1255       O  0.12718187  0.32185980  0.31929041    -0.60200
H1256       H  0.15146691  0.36574414  0.29342173     0.14300
H1257       H  0.06710451  0.40918860  0.23961048     0.46100
H1258       H  0.05047719  0.42850358  0.29718562     0.41500
H1259       H  0.10520343  0.29345818  0.31458630     0.45000
H1260       H  0.21807423  0.47853356  0.29049569     0.36400
C1261       C  0.04206471  0.13663686  0.42069639    -0.27800
C1262       C  0.99635508  0.11631675  0.42261613     0.01800
C1263       C  0.97180048  0.12520389  0.41174018     0.29900
C1264       C  0.99306301  0.15384307  0.39925045    -0.19600
C1265       C  0.03874921  0.17310475  0.39712347    -0.29000
C1266       C  0.06311062  0.16397313  0.40805153     0.43900
C1267       C  0.97535368  0.08607717  0.43603388     0.05100
O1268       O  0.92693098  0.10535816  0.41299739    -0.57500
H1269       H  0.97359098  0.15996925  0.39097639     0.18000
O1270       O  0.10792669  0.18268076  0.40681017    -0.64200
H1271       H  0.06180982  0.13129885  0.42909246     0.16500
C1272       C  0.98507024  0.05255488  0.43932650     0.28700
C1273       C  0.96864054  0.02711699  0.45277035    -0.25100
C1274       C  0.94204267  0.03403931  0.46318483    -0.24400
C1275       C  0.93063175  0.06624836  0.45955208     0.40200
C1276       C  0.94760932  0.09218530  0.44617492    -0.26900
O1277       O  0.00975954  0.04368810  0.42922640    -0.58800
H1278       H  0.97688351  0.00179903  0.45505819     0.15800
O1279       O  0.90505060  0.07445552  0.46942273    -0.60200
H1280       H  0.94008098  0.11803162  0.44397093     0.14300
H1281       H  0.11265191  0.15954329  0.40218862     0.46100
H1282       H  0.03780188  0.05243247  0.43469815     0.41500
H1283       H  0.87510173  0.05887930  0.46485266     0.45000
H1284       H  0.91536047  0.07578339  0.40833481     0.36400
C1285       C  0.21029367  0.20278044  0.36003370    -0.27800
C1286       C  0.24801151  0.24463830  0.35909477     0.01800
C1287       C  0.24309083  0.28206354  0.35850024     0.29900
C1288       C  0.20111321  0.27724141  0.35970661    -0.19600
C1289       C  0.16398099  0.23553232  0.36195076    -0.29000
C1290       C  0.16869173  0.19808236  0.36168404     0.43900
C1291       C  0.29199886  0.24841012  0.35937383     0.05100
O1292       O  0.27912513  0.32353201  0.35751745    -0.57500
H1293       H  0.19797137  0.30636051  0.35991103     0.18000
O1294       O  0.13295604  0.15674050  0.36354945    -0.64200
H1295       H  0.21319961  0.17353324  0.35992728     0.16500
C1296       C  0.30216612  0.22568841  0.37055328     0.28700
C1297       C  0.34277336  0.22745488  0.37016291    -0.25100
C1298       C  0.37409547  0.25157504  0.35868772    -0.24400
C1299       C  0.36438753  0.27568698  0.34783884     0.40200
C1300       C  0.32365286  0.27381078  0.34824305    -0.26900
O1301       O  0.27307387  0.20276150  0.38222222    -0.58800
H1302       H  0.34937539  0.20937098  0.37887710     0.15800
O1303       O  0.39439146  0.30151292  0.33683922    -0.60200
H1304       H  0.31645526  0.29154454  0.33956727     0.14300
H1305       H  0.12021421  0.14745997  0.35305030     0.46100
H1306       H  0.26283940  0.17130012  0.38016988     0.41500
H1307       H  0.38507543  0.28378453  0.32720725     0.45000
H1308       H  0.28703324  0.33357503  0.36837366     0.36400
C1309       C  0.55809053  0.92021366  0.01419264    -0.27800
C1310       C  0.58085589  0.91355608  0.02624720     0.01800
C1311       C  0.56353121  0.90611329  0.04130250     0.29900
C1312       C  0.52308079  0.90344393  0.04406437    -0.19600
C1313       C  0.49884799  0.90787009  0.03194307    -0.29000
C1314       C  0.51720580  0.91717109  0.01690679     0.43900
C1315       C  0.62211080  0.91307389  0.02321640     0.05100
O1316       O  0.58639753  0.90208120  0.05345738    -0.57500
H1317       H  0.51050172  0.89738054  0.05578120     0.18000
O1318       O  0.49516741  0.92228710  0.00471543    -0.64200
H1319       H  0.57139623  0.92643364  0.00257108     0.16500
C1320       C  0.62359834  0.87405368  0.02512136     0.28700
C1321       C  0.66411757  0.87528513  0.02492898    -0.25100
C1322       C  0.70345980  0.91500192  0.02229494    -0.24400
C1323       C  0.70132518  0.95327931  0.01901179     0.40200
C1324       C  0.66092147  0.95223887  0.01971950    -0.26900
O1325       O  0.58564651  0.83477370  0.02761039    -0.58800
H1326       H  0.66483427  0.84522652  0.02690625     0.15800
O1327       O  0.73894346  0.99256281  0.01615324    -0.60200
H1328       H  0.66013795  0.98239747  0.01809081     0.14300
H1329       H  0.47999493  0.89327724  0.99946365     0.46100
H1330       H  0.57271659  0.82436782  0.01718814     0.41500
H1331       H  0.73957656  0.99650487  0.00477521     0.45000
H1332       H  0.57226333  0.87003218  0.05543226     0.36400
C1333       C  0.27429883  0.75572722  0.11320479    -0.27800
C1334       C  0.31064385  0.75969350  0.10505530     0.01800
C1335       C  0.33089542  0.73613117  0.11025444     0.29900
C1336       C  0.31554731  0.71005087  0.12350440    -0.19600
C1337       C  0.27969451  0.70650092  0.13191588    -0.29000
C1338       C  0.25893053  0.72969603  0.12657904     0.43900
C1339       C  0.32932413  0.79038136  0.09173240     0.05100
O1340       O  0.36615237  0.73864311  0.10251570    -0.57500
H1341       H  0.33195309  0.69244035  0.12715524     0.18000
O1342       O  0.22415579  0.72794162  0.13442387    -0.64200
H1343       H  0.25864324  0.77398989  0.10947790     0.16500
C1344       C  0.30391124  0.78733091  0.07865780     0.28700
C1345       C  0.32389355  0.81516353  0.06587227    -0.25100
C1346       C  0.36938964  0.84550698  0.06579113    -0.24400
C1347       C  0.39430807  0.84904608  0.07910014     0.40200
C1348       C  0.37412069  0.82229399  0.09194269    -0.26900
O1349       O  0.26042928  0.75519251  0.07781320    -0.58800
H1350       H  0.30421969  0.81142889  0.05571775     0.15800
O1351       O  0.43856887  0.87883680  0.07974312    -0.60200
H1352       H  0.39396594  0.82575314  0.10202695     0.14300
H1353       H  0.23762738  0.75194173  0.14218294     0.46100
H1354       H  0.24365555  0.77048886  0.07973418     0.41500
H1355       H  0.45322987  0.86125030  0.07825201     0.45000
H1356       H  0.35325416  0.71791148  0.09371107     0.36400
C1357       C  0.41434002  0.05790752  0.96577741    -0.27800
C1358       C  0.44299977  0.05040721  0.95680338     0.01800
C1359       C  0.45320587  0.01820772  0.96159742     0.29900
C1360       C  0.43283363  0.99255229  0.97482749    -0.19600
C1361       C  0.40241619  0.99886852  0.98342880    -0.29000
C1362       C  0.39463289  0.03305840  0.97898693     0.43900
C1363       C  0.46061122  0.07618331  0.94234931     0.05100
O1364       O  0.48229250  0.01103194  0.95331858    -0.57500
H1365       H  0.43991210  0.96700230  0.97810511     0.18000
O1366       O  0.36792745  0.04293816  0.98752676    -0.64200
H1367       H  0.40712284  0.08337568  0.96248627     0.16500
C1368       C  0.43147771  0.07494038  0.93088966     0.28700
C1369       C  0.44744116  0.10344759  0.91823262    -0.25100
C1370       C  0.49261501  0.13344253  0.91657688    -0.24400
C1371       C  0.52201251  0.13412888  0.92790626     0.40200
C1372       C  0.50590411  0.10543270  0.94062731    -0.26900
O1373       O  0.38705616  0.04638295  0.93212397    -0.58800
H1374       H  0.42426805  0.10192721  0.90963125     0.15800
O1375       O  0.56627275  0.16370696  0.92697759    -0.60200
H1376       H  0.52862112  0.10723628  0.94947092     0.14300
H1377       H  0.38676628  0.06201382  0.99604839     0.46100
H1378       H  0.38188232  0.01900523  0.92695112     0.41500
H1379       H  0.57074742  0.18978139  0.93292278     0.45000
H1380       H  0.46510213  0.99225092  0.94447724     0.36400
C1381       C  0.12217789  0.91977831  0.00837530    -0.27800
C1382       C  0.14129187  0.91462633  0.02183377     0.01800
C1383       C  0.12070577  0.91022136  0.03618224     0.29900
C1384       C  0.08208456  0.91258381  0.03694765    -0.19600
C1385       C  0.06373222  0.91941154  0.02347857    -0.29000
C1386       C  0.08375184  0.92201897  0.00908994     0.43900
C1387       C  0.18556650  0.92002132  0.02071228     0.05100
O1388       O  0.13958133  0.90647875  0.04955812    -0.57500
H1389       H  0.06718177  0.91026710  0.04813437     0.18000
O1390       O  0.06610335  0.92675782  0.99559809    -0.64200
H1391       H  0.13781681  0.92312711  0.99725876     0.16500
C1392       C  0.19373114  0.88541546  0.02368056     0.28700
C1393       C  0.23613400  0.89185176  0.02142702    -0.25100
C1394       C  0.27021371  0.93218814  0.01577939    -0.24400
C1395       C  0.26165167  0.96670699  0.01295248     0.40200
C1396       C  0.21981580  0.96053012  0.01557977    -0.26900
O1397       O  0.16036011  0.84501423  0.02830788    -0.58800
H1398       H  0.24196257  0.86482190  0.02353100     0.15800
O1399       O  0.29420915  0.00705970  0.00795219    -0.60200
H1400       H  0.21383469  0.98742221  0.01332472     0.14300
H1401       H  0.04513065  0.89630157  0.99217862     0.46100
H1402       H  0.14688635  0.82875542  0.01859104     0.41500
H1403       H  0.28634351  0.00943445  0.99711016     0.45000
H1404       H  0.12354175  0.87462580  0.05202305     0.36400
C1405       C  0.35035806  0.53603584  0.57898697    -0.27800
C1406       C  0.32241609  0.50051437  0.58843336     0.01800
C1407       C  0.31107251  0.45759095  0.58386484     0.29900
C1408       C  0.32986575  0.45105674  0.57049059    -0.19600
C1409       C  0.36011482  0.48705717  0.56156235    -0.29000
C1410       C  0.36921459  0.52971341  0.56572309     0.43900
C1411       C  0.30728802  0.50935087  0.60333636     0.05100
O1412       O  0.28273562  0.42202492  0.59263714    -0.57500
H1413       H  0.32218101  0.41802789  0.56748488     0.18000
O1414       O  0.39607064  0.56552778  0.55675655    -0.64200
H1415       H  0.35826819  0.56909375  0.58207437     0.16500
C1416       C  0.33808112  0.53692362  0.61449601     0.28700
C1417       C  0.32375133  0.54658199  0.62827741    -0.25100
C1418       C  0.27871290  0.52969436  0.63114587    -0.24400
C1419       C  0.24785590  0.50185770  0.61996769     0.40200
C1420       C  0.26226406  0.49183932  0.60623032    -0.26900
O1421       O  0.38232927  0.55393891  0.61213040    -0.58800
H1422       H  0.34810322  0.56765003  0.63671196     0.15800
O1423       O  0.20372727  0.48635007  0.62190788    -0.60200
H1424       H  0.23825434  0.47126634  0.59762575     0.14300
H1425       H  0.42440288  0.58122441  0.56244079     0.46100
H1426       H  0.39381801  0.58505262  0.60911551     0.41500
H1427       H  0.19179194  0.45657335  0.62642083     0.45000
H1428       H  0.30183012  0.41638160  0.59958214     0.36400
C1429       C  0.55589359  0.59739567  0.51544185    -0.27800
C1430       C  0.57782818  0.62406191  0.52827934     0.01800
C1431       C  0.55983018  0.61020378  0.54314059     0.29900
C1432       C  0.51911726  0.57220454  0.54489650    -0.19600
C1433       C  0.49605465  0.54653630  0.53204470    -0.29000
C1434       C  0.51558907  0.55827784  0.51728848     0.43900
C1435       C  0.61921498  0.66647099  0.52629961     0.05100
O1436       O  0.58158561  0.63390607  0.55605023    -0.57500
H1437       H  0.50530719  0.56299220  0.55641516     0.18000
O1438       O  0.49457513  0.53329025  0.50452664    -0.64200
H1439       H  0.56951582  0.60740127  0.50393802     0.16500
C1440       C  0.65538393  0.66894429  0.51841971     0.28700
C1441       C  0.69529995  0.70872928  0.51790859    -0.25100
C1442       C  0.70016467  0.74642145  0.52542995    -0.24400
C1443       C  0.66337099  0.74409799  0.53294324     0.40200
C1444       C  0.62331577  0.70453527  0.53315808    -0.26900
O1445       O  0.65256436  0.63236278  0.51162214    -0.58800
H1446       H  0.72293575  0.70959529  0.51202730     0.15800
O1447       O  0.66581918  0.78036191  0.53989260    -0.60200
H1448       H  0.59544034  0.70337388  0.53897600     0.14300
H1449       H  0.50662737  0.51331511  0.50323040     0.46100
H1450       H  0.65801985  0.61666443  0.52009091     0.41500
H1451       H  0.67100821  0.77763152  0.55101517     0.45000
H1452       H  0.60206190  0.62336069  0.55889462     0.36400
C1453       C  0.13191808  0.15054630  0.51254213    -0.27800
C1454       C  0.14984957  0.17187053  0.52661111     0.01800
C1455       C  0.12512634  0.15589536  0.54026643     0.29900
C1456       C  0.08306363  0.11856594  0.53969390    -0.19600
C1457       C  0.06562570  0.09633510  0.52561966    -0.29000
C1458       C  0.09064908  0.11269619  0.51198406     0.43900
C1459       C  0.19500243  0.20988573  0.52662094     0.05100
O1460       O  0.14213660  0.17587107  0.55421389    -0.57500
H1461       H  0.06461344  0.10632779  0.55034791     0.18000
O1462       O  0.07480348  0.09258150  0.49796175    -0.64200
H1463       H  0.15036581  0.16306192  0.50190125     0.16500
C1464       C  0.22943062  0.20555048  0.52027675     0.28700
C1465       C  0.27054164  0.24275645  0.51788255    -0.25100
C1466       C  0.27817781  0.28481566  0.52172974    -0.24400
C1467       C  0.24447408  0.28878651  0.52914770     0.40200
C1468       C  0.20311414  0.25134579  0.53149246    -0.26900
O1469       O  0.22297158  0.16486641  0.51636508    -0.58800
H1470       H  0.29626037  0.23863144  0.51266637     0.15800
O1471       O  0.25091163  0.32903620  0.53363015    -0.60200
H1472       H  0.17680683  0.25497094  0.53646119     0.14300
H1473       H  0.08856835  0.07424706  0.49625703     0.46100
H1474       H  0.22217950  0.16391333  0.50489546     0.41500
H1475       H  0.24048530  0.33944188  0.52481209     0.45000
H1476       H  0.15688674  0.16043175  0.55851122     0.36400
C1477       C  0.41791234  0.30466014  0.46863493    -0.27800
C1478       C  0.44743199  0.34168786  0.46009175     0.01800
C1479       C  0.45814479  0.38374094  0.46547332     0.29900
C1480       C  0.43762210  0.38801333  0.47881904    -0.19600
C1481       C  0.40666742  0.35067851  0.48711418    -0.29000
C1482       C  0.39808847  0.30877765  0.48207261     0.43900
C1483       C  0.46445995  0.33495770  0.44520334     0.05100
O1484       O  0.48681545  0.42063321  0.45733981    -0.57500
H1485       H  0.44511818  0.42057569  0.48241690     0.18000
O1486       O  0.37000476  0.27132177  0.49006371    -0.64200
H1487       H  0.40989753  0.27213747  0.46476616     0.16500
C1488       C  0.50880353  0.34646432  0.44336413     0.28700
C1489       C  0.52259482  0.33541975  0.42965382    -0.25100
C1490       C  0.49239769  0.31196276  0.41774551    -0.24400
C1491       C  0.44825485  0.30143308  0.41951497     0.40200
C1492       C  0.43472219  0.31301842  0.43310113    -0.26900
O1493       O  0.53856108  0.36718896  0.45506972    -0.58800
H1494       H  0.55666621  0.34383397  0.42855947     0.15800
O1495       O  0.41829660  0.28088903  0.40784289    -0.60200
H1496       H  0.40055215  0.30416948  0.43431445     0.14300
H1497       H  0.38887161  0.26714502  0.49760900     0.46100
H1498       H  0.53574648  0.34320612  0.46187940     0.41500
H1499       H  0.40169153  0.24938132  0.41079322     0.45000
H1500       H  0.51532983  0.43266032  0.46285343     0.36400
C1501       C  0.64231057  0.47071293  0.74886388    -0.27800
C1502       C  0.66111019  0.44845548  0.75618182     0.01800
C1503       C  0.69703558  0.44809912  0.74920566     0.29900
C1504       C  0.71420202  0.47037366  0.73528718    -0.19600
C1505       C  0.69651842  0.49390060  0.72802260    -0.29000
C1506       C  0.65988646  0.49365790  0.73497463     0.43900
C1507       C  0.64328598  0.42524125  0.77104046     0.05100
O1508       O  0.71453762  0.42455678  0.75565616    -0.57500
H1509       H  0.74180354  0.46921609  0.73024614     0.18000
O1510       O  0.64092936  0.51563455  0.72840177    -0.64200
H1511       H  0.61441787  0.47096741  0.75408862     0.16500
C1512       C  0.67077778  0.43561632  0.78410675     0.28700
C1513       C  0.65552281  0.40962871  0.79738282    -0.25100
C1514       C  0.61243837  0.37386254  0.79808330    -0.24400
C1515       C  0.58403172  0.36482888  0.78534614     0.40200
C1516       C  0.59957532  0.39052951  0.77192272    -0.26900
O1517       O  0.71296865  0.47066948  0.78391416    -0.58800
H1518       H  0.67745205  0.41748499  0.80719906     0.15800
O1519       O  0.54169633  0.32999257  0.78567012    -0.60200
H1520       H  0.57803111  0.38230044  0.76198242     0.14300
H1521       H  0.65583938  0.54515027  0.73329892     0.46100
H1522       H  0.70994606  0.49703327  0.78529069     0.41500
H1523       H  0.54362974  0.30449709  0.78175346     0.45000
H1524       H  0.74429683  0.44679440  0.75933885     0.36400
C1525       C  0.96115519  0.55052534  0.70045054    -0.27800
C1526       C  0.94907954  0.56666464  0.68766520     0.01800
C1527       C  0.98047126  0.58952396  0.67605584     0.29900
C1528       C  0.02288787  0.59519911  0.67724086    -0.19600
C1529       C  0.03488804  0.57824298  0.68993721    -0.29000
C1530       C  0.00330255  0.55607862  0.70169554     0.43900
C1531       C  0.90405997  0.56054379  0.68712576     0.05100
O1532       O  0.96992242  0.60610628  0.66345053    -0.57500
H1533       H  0.04618736  0.61244667  0.66803963     0.18000
O1534       O  0.01289646  0.53939214  0.71449935    -0.64200
H1535       H  0.93784129  0.53393020  0.70971582     0.16500
C1536       C  0.86680348  0.51863425  0.68945137     0.28700
C1537       C  0.82546198  0.51442433  0.69185557    -0.25100
C1538       C  0.82033014  0.55146489  0.69157569    -0.24400
C1539       C  0.85680166  0.59285306  0.68793205     0.40200
C1540       C  0.89842837  0.59726460  0.68595126    -0.26900
O1541       O  0.87060933  0.48164493  0.68930181    -0.58800
H1542       H  0.79742934  0.48217435  0.69418680     0.15800
O1543       O  0.85284917  0.62971435  0.68751143    -0.60200
H1544       H  0.92667473  0.62975559  0.68421702     0.14300
H1545       H  0.02327358  0.56302277  0.72239238     0.46100
H1546       H  0.86679618  0.47158995  0.70020156     0.41500
H1547       H  0.84816325  0.63367149  0.67644905     0.45000
H1548       H  0.96234596  0.58393487  0.65515847     0.36400
C1549       C  0.45629642  0.58040378  0.70385137    -0.27800
C1550       C  0.47791321  0.58655486  0.68962399     0.01800
C1551       C  0.45958827  0.59396624  0.67623447     0.29900
C1552       C  0.42017389  0.59430363  0.67712051    -0.19600
C1553       C  0.39849839  0.58829783  0.69129859    -0.29000
C1554       C  0.41707784  0.58156251  0.70479678     0.43900
C1555       C  0.52021217  0.58677836  0.68869783     0.05100
O1556       O  0.48033586  0.60174349  0.66218812    -0.57500
H1557       H  0.40659602  0.59941713  0.66658932     0.18000
O1558       O  0.39835483  0.57804249  0.71903903    -0.64200
H1559       H  0.46985800  0.57477560  0.71428232     0.16500
C1560       C  0.55573146  0.61327693  0.69864481     0.28700
C1561       C  0.59694959  0.61724648  0.69616121    -0.25100
C1562       C  0.60347290  0.59598147  0.68362015    -0.24400
C1563       C  0.56791497  0.56831790  0.67406121     0.40200
C1564       C  0.52645601  0.56317830  0.67680861    -0.26900
O1565       O  0.55115140  0.63702236  0.71034552    -0.58800
H1566       H  0.62431749  0.63847653  0.70361146     0.15800
O1567       O  0.57378846  0.54744263  0.66166822    -0.60200
H1568       H  0.49940799  0.54186249  0.66926117     0.14300
H1569       H  0.38191541  0.54610191  0.72136093     0.46100
H1570       H  0.55774624  0.66531621  0.70555470     0.41500
H1571       H  0.56685701  0.51817168  0.66561334     0.45000
H1572       H  0.50301384  0.63341609  0.66229935     0.36400
C1573       C  0.78792070  0.68937825  0.62986909    -0.27800
C1574       C  0.77815765  0.72208513  0.62565284     0.01800
C1575       C  0.74856137  0.72836338  0.63470823     0.29900
C1576       C  0.72770212  0.70108738  0.64738185    -0.19600
C1577       C  0.73604270  0.66723193  0.65141275    -0.29000
C1578       C  0.76694547  0.66185124  0.64261020     0.43900
C1579       C  0.79533490  0.74725401  0.61109642     0.05100
O1580       O  0.73890312  0.76049529  0.63096440    -0.57500
H1581       H  0.70457220  0.70631531  0.65401126     0.18000
O1582       O  0.77558475  0.62877402  0.64592446    -0.64200
H1583       H  0.81048006  0.68406500  0.62291882     0.16500
C1584       C  0.83954844  0.78071956  0.60954629     0.28700
C1585       C  0.85304442  0.80737439  0.59626877    -0.25100
C1586       C  0.82271374  0.80132913  0.58450670    -0.24400
C1587       C  0.77902849  0.76639593  0.58581516     0.40200
C1588       C  0.76565641  0.73991318  0.59904186    -0.26900
O1589       O  0.86942270  0.78823851  0.62106098    -0.58800
H1590       H  0.88699613  0.83360070  0.59536398     0.15800
O1591       O  0.74912426  0.75765354  0.57419559    -0.60200
H1592       H  0.73166061  0.71384629  0.60003234     0.14300
H1593       H  0.75313754  0.60281126  0.64010819     0.46100
H1594       H  0.87091488  0.81263697  0.62729554     0.41500
H1595       H  0.75405553  0.73930009  0.56665087     0.45000
H1596       H  0.76126894  0.78721723  0.63646228     0.36400
C1597       C  0.20640431  0.96977803  0.85799608    -0.27800
C1598       C  0.24286729  0.96377988  0.85691441     0.01800
C1599       C  0.23633177  0.92082544  0.85696667     0.29900
C1600       C  0.19369301  0.88467775  0.85860336    -0.19600
C1601       C  0.15753853  0.89101735  0.86034594    -0.29000
C1602       C  0.16405026  0.93385582  0.85969490     0.43900
C1603       C  0.28745572  0.00297598  0.85704654     0.05100
O1604       O  0.27158971  0.91414596  0.85665875    -0.57500
H1605       H  0.18915851  0.85187198  0.85926639     0.18000
O1606       O  0.12923966  0.94101166  0.86097739    -0.64200
H1607       H  0.21095764  0.00263737  0.85784747     0.16500
C1608       C  0.31825146  0.01096484  0.84528851     0.28700
C1609       C  0.35985888  0.04891008  0.84580298    -0.25100
C1610       C  0.37131033  0.07981997  0.85784519    -0.24400
C1611       C  0.33993132  0.07156153  0.86955932     0.40200
C1612       C  0.29864663  0.03358821  0.86903021    -0.26900
O1613       O  0.30783009  0.98243286  0.83309263    -0.58800
H1614       H  0.38290575  0.05436399  0.83658154     0.15800
O1615       O  0.34864909  0.10056799  0.88148774    -0.60200
H1616       H  0.27512692  0.02793654  0.87811318     0.14300
H1617       H  0.11845798  0.93928317  0.85024979     0.46100
H1618       H  0.28794846  0.98766053  0.82641375     0.41500
H1619       H  0.35926309  0.08965151  0.89009643     0.45000
H1620       H  0.27044381  0.90113384  0.84636703     0.36400
C1621       C  0.98372894  0.80123890  0.91668580    -0.27800
C1622       C  0.99229715  0.84365498  0.92055406     0.01800
C1623       C  0.01681617  0.87846198  0.91015412     0.29900
C1624       C  0.03389540  0.87093584  0.89661267    -0.19600
C1625       C  0.02650989  0.82874267  0.89296343    -0.29000
C1626       C  0.00026635  0.79356320  0.90300251     0.43900
C1627       C  0.97738838  0.85173708  0.93571306     0.05100
O1628       O  0.02496374  0.92018982  0.91324529    -0.57500
H1629       H  0.05359892  0.89849278  0.88903055     0.18000
O1630       O  0.99210378  0.75185474  0.89994603    -0.64200
H1631       H  0.96547154  0.77411407  0.92457589     0.16500
C1632       C  0.93359389  0.82577634  0.94083275     0.28700
C1633       C  0.92052829  0.83486215  0.95506710    -0.25100
C1634       C  0.95047826  0.87008789  0.96439906    -0.24400
C1635       C  0.99453196  0.89574145  0.95922573     0.40200
C1636       C  0.00760211  0.88597276  0.94521683    -0.26900
O1637       O  0.90274562  0.79302980  0.93160279    -0.58800
H1638       H  0.88645261  0.81495407  0.95855689     0.15800
O1639       O  0.02545810  0.93049057  0.96774087    -0.60200
H1640       H  0.04169267  0.90568276  0.94169933     0.14300
H1641       H  0.01654052  0.75003374  0.90495335     0.46100
H1642       H  0.89633288  0.76510134  0.93665505     0.41500
H1643       H  0.02693461  0.95700536  0.96310305     0.45000
H1644       H  0.00126314  0.92246716  0.90786043     0.36400
C1645       C  0.79575571  0.49478062  0.87225180    -0.27800
C1646       C  0.81657755  0.51175937  0.85804401     0.01800
C1647       C  0.79594036  0.49003104  0.84424273     0.29900
C1648       C  0.75528235  0.45132502  0.84473189    -0.19600
C1649       C  0.73457014  0.43351933  0.85890368    -0.29000
C1650       C  0.75497981  0.45574063  0.87278220     0.43900
C1651       C  0.86115874  0.55047973  0.85757014     0.05100
O1652       O  0.81584300  0.50596666  0.83021493    -0.57500
H1653       H  0.73995644  0.43512410  0.83394655     0.18000
O1654       O  0.73684601  0.43822995  0.88690652    -0.64200
H1655       H  0.81181818  0.51104903  0.88294300     0.16500
C1656       C  0.86890200  0.59269309  0.86131840     0.28700
C1657       C  0.91099421  0.62931017  0.85933947    -0.25100
C1658       C  0.94529960  0.62432215  0.85326203    -0.24400
C1659       C  0.93761365  0.58169000  0.84999149     0.40200
C1660       C  0.89585277  0.54520509  0.85227964    -0.26900
O1661       O  0.83516081  0.59862659  0.86625308    -0.58800
H1662       H  0.91615270  0.66181089  0.86175386     0.15800
O1663       O  0.97076106  0.57531662  0.84463889    -0.60200
H1664       H  0.89016302  0.51268234  0.84950267     0.14300
H1665       H  0.72012226  0.45289121  0.88991366     0.46100
H1666       H  0.82306444  0.60427517  0.85671761     0.41500
H1667       H  0.96476677  0.56891268  0.83344040     0.45000
H1668       H  0.80303664  0.52358116  0.82625143     0.36400
C1669       C  0.05834832  0.65920168  0.79126770    -0.27800
C1670       C  0.10421552  0.68038752  0.78986298     0.01800
C1671       C  0.13071082  0.71087857  0.80129662     0.29900
C1672       C  0.11115072  0.71817107  0.81426734    -0.19600
C1673       C  0.06521093  0.69482242  0.81611333    -0.29000
C1674       C  0.03880041  0.66595838  0.80424257     0.43900
C1675       C  0.12361045  0.66887332  0.77669644     0.05100
O1676       O  0.17571564  0.73251913  0.80017994    -0.57500
H1677       H  0.13198977  0.74061463  0.82320161     0.18000
O1678       O  0.99371297  0.64483885  0.80505236    -0.64200
H1679       H  0.03750308  0.63668999  0.78234328     0.16500
C1680       C  0.11208450  0.62482015  0.77406139     0.28700
C1681       C  0.12892599  0.61391949  0.76122531    -0.25100
C1682       C  0.15740670  0.64640206  0.75078066    -0.24400
C1683       C  0.16954764  0.69065176  0.75357395     0.40200
C1684       C  0.15255057  0.70153835  0.76642816    -0.26900
O1685       O  0.08538223  0.59239176  0.78426345    -0.58800
H1686       H  0.11966218  0.57981279  0.75946710     0.15800
O1687       O  0.19602398  0.72316772  0.74338602    -0.60200
H1688       H  0.16123828  0.73547105  0.76819817     0.14300
H1689       H  0.98417906  0.61376724  0.80753113     0.46100
H1690       H  0.05683829  0.57492758  0.77883196     0.41500
H1691       H  0.22598648  0.73690509  0.74791438     0.45000
H1692       H  0.18440357  0.71150733  0.80415565     0.36400
C1693       C  0.41070593  0.20419493  0.27334815    -0.27800
C1694       C  0.38560412  0.15935711  0.26975421     0.01800
C1695       C  0.38349874  0.12829779  0.28055646     0.29900
C1696       C  0.40765090  0.14235161  0.29438985    -0.19600
C1697       C  0.43363171  0.18741130  0.29792541    -0.29000
C1698       C  0.43424056  0.21834086  0.28728204     0.43900
C1699       C  0.36334504  0.14532175  0.25445805     0.05100
O1700       O  0.35802773  0.08406678  0.27767255    -0.57500
H1701       H  0.40591128  0.11782290  0.30239661     0.18000
O1702       O  0.45953331  0.26267292  0.28995307    -0.64200
H1703       H  0.41297841  0.22851038  0.26512716     0.16500
C1704       C  0.33239184  0.15708245  0.24951404     0.28700
C1705       C  0.30990951  0.14087720  0.23544978    -0.25100
C1706       C  0.31819287  0.11325603  0.22604808    -0.24400
C1707       C  0.35168562  0.10435776  0.23049075     0.40200
C1708       C  0.37360425  0.12005821  0.24461562    -0.26900
O1709       O  0.32185054  0.18203672  0.25881343    -0.58800
H1710       H  0.28445260  0.14823571  0.23229987     0.15800
O1711       O  0.36357452  0.08068703  0.22103035    -0.60200
H1712       H  0.39855994  0.11215680  0.24796505     0.14300
H1713       H  0.43896363  0.27154909  0.29423268     0.46100
H1714       H  0.33607806  0.21154511  0.25393109     0.41500
H1715       H  0.35098534  0.05125037  0.22589614     0.45000
H1716       H  0.32786129  0.07621417  0.28089189     0.36400
C1717       C  0.20136637  0.81873967  0.18351550    -0.27800
C1718       C  0.23332115  0.85273816  0.19261027     0.01800
C1719       C  0.26267720  0.84527111  0.20141714     0.29900
C1720       C  0.25922729  0.80396647  0.20125239    -0.19600
C1721       C  0.22704063  0.76957545  0.19219700    -0.29000
C1722       C  0.19815498  0.77751037  0.18316698     0.43900
C1723       C  0.23418866  0.89505603  0.19363684     0.05100
O1724       O  0.29471044  0.87811028  0.21030903    -0.57500
H1725       H  0.28214257  0.79908558  0.20817468     0.18000
O1726       O  0.16542062  0.74482381  0.17445130    -0.64200
H1727       H  0.17803226  0.82380495  0.17693781     0.16500
C1728       C  0.23764727  0.91992205  0.18036040     0.28700
C1729       C  0.24126651  0.96130381  0.18197911    -0.25100
C1730       C  0.24119052  0.97779715  0.19672966    -0.24400
C1731       C  0.23509154  0.95174616  0.20986779     0.40200
C1732       C  0.23151606  0.91069157  0.20825594    -0.26900
O1733       O  0.23997741  0.90515551  0.16589824    -0.58800
H1734       H  0.24583721  0.98114642  0.17180256     0.15800
O1735       O  0.23170772  0.96591635  0.22432683    -0.60200
H1736       H  0.22708485  0.89112331  0.21850151     0.14300
H1737       H  0.17711469  0.74998235  0.16374607     0.46100
H1738       H  0.21058559  0.89467785  0.16120827     0.41500
H1739       H  0.26089111  0.97668813  0.22922878     0.45000
H1740       H  0.32042546  0.89386562  0.20334904     0.36400
C1741       C  0.05472480  0.03705319  0.10329892    -0.27800
C1742       C  0.05048702  0.00455844  0.11372978     0.01800
C1743       C  0.02476490  0.95998481  0.10953788     0.29900
C1744       C  0.00226055  0.94858965  0.09534367    -0.19600
C1745       C  0.00516642  0.98120631  0.08512847    -0.29000
C1746       C  0.03274483  0.02580166  0.08909209     0.43900
C1747       C  0.07180841  0.01849613  0.12912028     0.05100
O1748       O  0.01922029  0.92743133  0.11961426    -0.57500
H1749       H  0.98137071  0.91406204  0.09256754     0.18000
O1750       O  0.03840876  0.05880048  0.07922811    -0.64200
H1751       H  0.07507828  0.07152234  0.10626480     0.16500
C1752       C  0.10447295  0.00917520  0.13405446     0.28700
C1753       C  0.12812000  0.02820009  0.14770439    -0.25100
C1754       C  0.12019184  0.05723608  0.15649577    -0.24400
C1755       C  0.08577589  0.06455419  0.15188093     0.40200
C1756       C  0.06214081  0.04535179  0.13833816    -0.26900
O1757       O  0.11508062  0.98333893  0.12527164    -0.58800
H1758       H  0.15422907  0.02191463  0.15096176     0.15800
O1759       O  0.07575068  0.09161007  0.16018889    -0.60200
H1760       H  0.03684944  0.05252915  0.13474532     0.14300
H1761       H  0.06125353  0.06188850  0.07178030     0.46100
H1762       H  0.13472912  0.00294852  0.11701977     0.41500
H1763       H  0.05586271  0.07287756  0.16855212     0.45000
H1764       H  0.03622359  0.91457683  0.11512121     0.36400
C1765       C  0.18608199  0.33091318  0.17781928    -0.27800
C1766       C  0.20247299  0.31856309  0.19047189     0.01800
C1767       C  0.22349426  0.34881389  0.20254861     0.29900
C1768       C  0.22636285  0.39003794  0.20214135    -0.19600
C1769       C  0.20863859  0.40215799  0.18971516    -0.29000
C1770       C  0.18894134  0.37208106  0.17733261     0.43900
C1771       C  0.19711155  0.27392448  0.19086667     0.05100
O1772       O  0.24094093  0.33821873  0.21489116    -0.57500
H1773       H  0.24212723  0.41231983  0.21174539     0.18000
O1774       O  0.17319089  0.38270276  0.16450602    -0.64200
H1775       H  0.17099481  0.30846387  0.16819799     0.16500
C1776       C  0.15519444  0.23631642  0.18913749     0.28700
C1777       C  0.15096497  0.19467954  0.18805484    -0.25100
C1778       C  0.18811376  0.18967016  0.18872139    -0.24400
C1779       C  0.22983870  0.22701868  0.19129945     0.40200
C1780       C  0.23409614  0.26878027  0.19230061    -0.26900
O1781       O  0.11813434  0.23999579  0.18868963    -0.58800
H1782       H  0.11852712  0.16624577  0.18636031     0.15800
O1783       O  0.26690056  0.22344228  0.19213549    -0.60200
H1784       H  0.26657406  0.29738759  0.19362916     0.14300
H1785       H  0.14091223  0.36822675  0.16605890     0.46100
H1786       H  0.10830183  0.23473494  0.17774601     0.41500
H1787       H  0.27628362  0.22435016  0.18125906     0.45000
H1788       H  0.21802085  0.32772879  0.22303751     0.36400
C1789       C  0.23394064  0.93828063  0.33759326    -0.27800
C1790       C  0.24810218  0.95294041  0.35273115     0.01800
C1791       C  0.22145337  0.92834431  0.36526173     0.29900
C1792       C  0.18292277  0.88811575  0.36254990    -0.19600
C1793       C  0.17072402  0.87183600  0.34742244    -0.29000
C1794       C  0.19578983  0.89797856  0.33487836     0.43900
C1795       C  0.29166284  0.99275912  0.35520074     0.05100
O1796       O  0.23353835  0.94249114  0.38019849    -0.57500
H1797       H  0.16375737  0.86866663  0.37232850     0.18000
O1798       O  0.18288865  0.88467554  0.31991319    -0.64200
H1799       H  0.25312170  0.95774339  0.32781953     0.16500
C1800       C  0.32976813  0.99593757  0.34858727     0.28700
C1801       C  0.37043328  0.03449803  0.35032694    -0.25100
C1802       C  0.37402554  0.07063822  0.35858345    -0.24400
C1803       C  0.33593422  0.06669334  0.36567403     0.40200
C1804       C  0.29527935  0.02801911  0.36393282    -0.26900
O1805       O  0.32767220  0.96104368  0.34069683    -0.58800
H1806       H  0.39915115  0.03618766  0.34501097     0.15800
O1807       O  0.33761908  0.10071670  0.37400397    -0.60200
H1808       H  0.26623462  0.02602295  0.36908517     0.14300
H1809       H  0.20236745  0.87377500  0.31617203     0.46100
H1810       H  0.32958010  0.96890985  0.32959305     0.41500
H1811       H  0.33382964  0.11941536  0.36627803     0.45000
H1812       H  0.25517169  0.93342186  0.38304340     0.36400
C1813       C  0.16528724  0.70805496  0.26731428    -0.27800
C1814       C  0.13624436  0.67771860  0.27820416     0.01800
C1815       C  0.11727676  0.63241942  0.27506791     0.29900
C1816       C  0.12888732  0.61830491  0.26157087    -0.19600
C1817       C  0.15963737  0.64882483  0.25101073    -0.29000
C1818       C  0.17715085  0.69410004  0.25392301     0.43900
C1819       C  0.12728113  0.69433708  0.29284102     0.05100
O1820       O  0.08796741  0.60164878  0.28520819    -0.57500
H1821       H  0.11450330  0.58332366  0.25955137     0.18000
O1822       O  0.20460363  0.72509194  0.24345676    -0.64200
H1823       H  0.17898159  0.74300358  0.26920340     0.16500
C1824       C  0.16247698  0.72574928  0.30186850     0.28700
C1825       C  0.15431788  0.74501388  0.31462696    -0.25100
C1826       C  0.11123563  0.73359527  0.31879296    -0.24400
C1827       C  0.07573016  0.69997057  0.31043362     0.40200
C1828       C  0.08392289  0.68079549  0.29750471    -0.26900
O1829       O  0.20508864  0.73731999  0.29842537    -0.58800
H1830       H  0.18214911  0.76966396  0.32116659     0.15800
O1831       O  0.03306147  0.68660187  0.31442791    -0.60200
H1832       H  0.05636527  0.65646212  0.29078993     0.14300
H1833       H  0.23470911  0.73661960  0.24765292     0.46100
H1834       H  0.21914329  0.76799829  0.29455854     0.41500
H1835       H  0.02578939  0.70682608  0.30888092     0.45000
H1836       H  0.10630131  0.59919798  0.29343535     0.36400
C1837       C  0.99375826  0.83325162  0.41371792    -0.27800
C1838       C  0.98385084  0.80914473  0.42757843     0.01800
C1839       C  0.98135764  0.76787510  0.42749574     0.29900
C1840       C  0.98543426  0.74993881  0.41360657    -0.19600
C1841       C  0.99346639  0.77312981  0.39967437    -0.29000
C1842       C  0.99911213  0.81570694  0.39983839     0.43900
C1843       C  0.97158836  0.82483676  0.44164640     0.05100
O1844       O  0.97360256  0.74416908  0.44088472    -0.57500
H1845       H  0.98177354  0.71743471  0.41367856     0.18000
O1846       O  0.00643991  0.83892415  0.38635630    -0.64200
H1847       H  0.99536299  0.86483008  0.41350661     0.16500
C1848       C  0.99889592  0.86712299  0.44778222     0.28700
C1849       C  0.98494527  0.88139534  0.46061219    -0.25100
C1850       C  0.94362375  0.85405318  0.46755200    -0.24400
C1851       C  0.91694291  0.81114236  0.46154862     0.40200
C1852       C  0.93094974  0.79714410  0.44873898    -0.26900
O1853       O  0.03987769  0.89409618  0.44165880    -0.58800
H1854       H  0.00666661  0.91415434  0.46506214     0.15800
O1855       O  0.87728655  0.78214840  0.46815961    -0.60200
H1856       H  0.90944159  0.76448557  0.44415038     0.14300
H1857       H  0.03883534  0.85826338  0.38575723     0.46100
H1858       H  0.03719384  0.91674155  0.43570322     0.41500
H1859       H  0.85492372  0.78486808  0.46201498     0.45000
H1860       H  0.00270354  0.75670533  0.44602163     0.36400
C1861       C  0.76460509  0.51338607  0.36299168    -0.27800
C1862       C  0.80415240  0.51815070  0.35732154     0.01800
C1863       C  0.80401602  0.48182014  0.35040423     0.29900
C1864       C  0.76501314  0.44094716  0.34991881    -0.19600
C1865       C  0.72585527  0.43570779  0.35625939    -0.29000
C1866       C  0.72573484  0.47279643  0.36247839     0.43900
C1867       C  0.84550770  0.56012019  0.36015872     0.05100
O1868       O  0.84238147  0.48511916  0.34514871    -0.57500
H1869       H  0.76588049  0.41294007  0.34510279     0.18000
O1870       O  0.68801261  0.46975544  0.36831998    -0.64200
H1871       H  0.76410579  0.54120778  0.36817599     0.16500
C1872       C  0.87425235  0.58494566  0.34811303     0.28700
C1873       C  0.91184457  0.62555387  0.35137476    -0.25100
C1874       C  0.92087217  0.64241991  0.36654720    -0.24400
C1875       C  0.89248383  0.61675153  0.37861223     0.40200
C1876       C  0.85531058  0.57623905  0.37534062    -0.26900
O1877       O  0.86521235  0.57058694  0.33308824    -0.58800
H1878       H  0.93309488  0.64453642  0.34190419     0.15800
O1879       O  0.90041389  0.63085839  0.39368424    -0.60200
H1880       H  0.83375403  0.55726794  0.38475913     0.14300
H1881       H  0.67278996  0.47335755  0.35925622     0.46100
H1882       H  0.84812233  0.58364075  0.32883235     0.41500
H1883       H  0.92181881  0.62258224  0.39758368     0.45000
H1884       H  0.83943788  0.48284555  0.33372382     0.36400
C1885       C  0.12019009  0.16968175  0.00896235    -0.27800
C1886       C  0.13707698  0.19328602  0.02272693     0.01800
C1887       C  0.11684422  0.17405180  0.03687898     0.29900
C1888       C  0.07941510  0.13211942  0.03711496    -0.19600
C1889       C  0.06187754  0.10839440  0.02333600    -0.29000
C1890       C  0.08274544  0.12760576  0.00915732     0.43900
C1891       C  0.17384570  0.23916168  0.02224640     0.05100
O1892       O  0.13323880  0.19624911  0.05053767    -0.57500
H1893       H  0.06420552  0.11804315  0.04814024     0.18000
O1894       O  0.06616401  0.10617470  0.99538542    -0.64200
H1895       H  0.13534188  0.18445649  0.99800051     0.16500
C1896       C  0.21701850  0.24933909  0.01871011     0.28700
C1897       C  0.25168169  0.29298257  0.01974284    -0.25100
C1898       C  0.24355019  0.32681397  0.02406712    -0.24400
C1899       C  0.19973973  0.31668959  0.02649846     0.40200
C1900       C  0.16546282  0.27311134  0.02580161    -0.26900
O1901       O  0.22588196  0.21662082  0.01505507    -0.58800
H1902       H  0.28504872  0.30007590  0.01772359     0.15800
O1903       O  0.18998738  0.34904985  0.02972866    -0.60200
H1904       H  0.13212923  0.26565467  0.02817016     0.14300
H1905       H  0.04623649  0.11655385  0.99165271     0.46100
H1906       H  0.22615495  0.21590330  0.00358826     0.41500
H1907       H  0.19223786  0.36366399  0.01968079     0.45000
H1908       H  0.15615698  0.18928185  0.05375358     0.36400
C1909       C  0.25906584  0.47620108  0.07188339    -0.27800
C1910       C  0.29342858  0.49768791  0.08261069     0.01800
C1911       C  0.33487325  0.50255273  0.07919340     0.29900
C1912       C  0.34098409  0.48478995  0.06547943    -0.19600
C1913       C  0.30595413  0.46138098  0.05512582    -0.29000
C1914       C  0.26499605  0.45815381  0.05828593     0.43900
C1915       C  0.28414994  0.51054183  0.09795022     0.05100
O1916       O  0.36838448  0.52109913  0.08981386    -0.57500
H1917       H  0.37249162  0.48712623  0.06340314     0.18000
O1918       O  0.23000602  0.43621563  0.04840433    -0.64200
H1919       H  0.22701960  0.47225973  0.07430025     0.16500
C1920       C  0.30858919  0.55383597  0.10368237     0.28700
C1921       C  0.29983527  0.56397128  0.11850293    -0.25100
C1922       C  0.26626799  0.53153410  0.12781014    -0.24400
C1923       C  0.24145358  0.48832631  0.12185256     0.40200
C1924       C  0.25037670  0.47835452  0.10709912    -0.26900
O1925       O  0.34067952  0.58662542  0.09483393    -0.58800
H1926       H  0.31896089  0.59757085  0.12259184     0.15800
O1927       O  0.20849011  0.45524824  0.13034397    -0.60200
H1928       H  0.23121722  0.44488878  0.10287511     0.14300
H1929       H  0.23492087  0.45747207  0.04002774     0.46100
H1930       H  0.32486316  0.59664269  0.08794760     0.41500
H1931       H  0.22311708  0.44230143  0.13643849     0.45000
H1932       H  0.38983226  0.55028006  0.08550114     0.36400
C1933       C  0.43468736  0.35100169  0.96758007    -0.27800
C1934       C  0.46390811  0.37689126  0.95580824     0.01800
C1935       C  0.48124864  0.42269705  0.95610035     0.29900
C1936       C  0.47113429  0.44207239  0.96834993    -0.19600
C1937       C  0.44312243  0.41658885  0.98044388    -0.29000
C1938       C  0.42396919  0.37047219  0.97977832     0.43900
C1939       C  0.47569723  0.35612536  0.94309489     0.05100
O1940       O  0.50652154  0.44854904  0.94407334    -0.57500
H1941       H  0.48530302  0.47747500  0.96831290     0.18000
O1942       O  0.39645917  0.34431675  0.99129176    -0.64200
H1943       H  0.42066643  0.31563131  0.96742878     0.16500
C1944       C  0.52001324  0.37012997  0.93964431     0.28700
C1945       C  0.53052398  0.35287431  0.92681097    -0.25100
C1946       C  0.49741142  0.32064689  0.91734481    -0.24400
C1947       C  0.45297791  0.30550161  0.92116203     0.40200
C1948       C  0.44249534  0.32315007  0.93394294    -0.26900
O1949       O  0.55337779  0.40093686  0.94869759    -0.58800
H1950       H  0.56487808  0.36490655  0.92426821     0.15800
O1951       O  0.41945934  0.27445137  0.91224022    -0.60200
H1952       H  0.40825799  0.31196577  0.93643865     0.14300
H1953       H  0.36635028  0.33518832  0.98758064     0.46100
H1954       H  0.56062828  0.38380937  0.95602935     0.41500
H1955       H  0.41428249  0.29133138  0.90414189     0.45000
H1956       H  0.53633501  0.46761380  0.94845291     0.36400
C1957       C  0.54988049  0.60958985  0.02931245    -0.27800
C1958       C  0.58193582  0.62920231  0.01770614     0.01800
C1959       C  0.57354018  0.61007787  0.00292003     0.29900
C1960       C  0.53488745  0.57055299  0.00013436    -0.19600
C1961       C  0.50369493  0.54927730  0.01190741    -0.29000
C1962       C  0.51077386  0.56986418  0.02649402     0.43900
C1963       C  0.62515547  0.66825069  0.02110265     0.05100
O1964       O  0.60373586  0.62914727  0.99122910    -0.57500
H1965       H  0.52988597  0.55607201  0.98871560     0.18000
O1966       O  0.48137145  0.55016750  0.03835244    -0.64200
H1967       H  0.55597324  0.62415819  0.04074346     0.16500
C1968       C  0.62866095  0.70775927  0.02631750     0.28700
C1969       C  0.67021435  0.74516868  0.02811192    -0.25100
C1970       C  0.70860813  0.74400642  0.02446087    -0.24400
C1971       C  0.70504980  0.70401070  0.01974142     0.40200
C1972       C  0.66356082  0.66650896  0.01818733    -0.26900
O1973       O  0.59174416  0.71059348  0.02910889    -0.58800
H1974       H  0.67231919  0.77566872  0.03173960     0.15800
O1975       O  0.74179043  0.70127438  0.01646508    -0.60200
H1976       H  0.66126264  0.63604423  0.01438469     0.14300
H1977       H  0.46210495  0.56324688  0.03802997     0.46100
H1978       H  0.58489107  0.71973444  0.01912410     0.41500
H1979       H  0.75115789  0.69505394  0.02651996     0.45000
H1980       H  0.59205234  0.64381475  0.98451912     0.36400
C1981       C  0.01659317  0.44330749  0.58520045    -0.27800
C1982       C  0.01446893  0.47734924  0.59276847     0.01800
C1983       C  0.98666456  0.49203209  0.58696135     0.29900
C1984       C  0.96013553  0.47140465  0.57399136    -0.19600
C1985       C  0.96083692  0.43589252  0.56678182    -0.29000
C1986       C  0.99043455  0.42279829  0.57230722     0.43900
C1987       C  0.04051789  0.49569756  0.60702691     0.05100
O1988       O  0.98430345  0.52557345  0.59413701    -0.57500
H1989       H  0.93800449  0.48226265  0.56990134     0.18000
O1990       O  0.99406550  0.38976181  0.56528630    -0.64200
H1991       H  0.03851338  0.43230138  0.58942278     0.16500
C1992       C  0.03396708  0.46799704  0.61971706     0.28700
C1993       C  0.06202353  0.48394399  0.63246929    -0.25100
C1994       C  0.09639858  0.52775893  0.63295044    -0.24400
C1995       C  0.10198141  0.55609071  0.62050481     0.40200
C1996       C  0.07411212  0.53988354  0.60760962    -0.26900
O1997       O  0.00055387  0.42498350  0.61962499    -0.58800
H1998       H  0.05680276  0.46197105  0.64205384     0.15800
O1999       O  0.13531241  0.59915325  0.62060829    -0.60200
H2000       H  0.07957382  0.56140136  0.59785907     0.14300
H2001       H  0.01451641  0.40404168  0.55650201     0.46100
H2002       H  0.97505714  0.42539947  0.62434970     0.41500
H2003       H  0.16105826  0.59884391  0.61605823     0.45000
H2004       H  0.95951300  0.51091613  0.60153758     0.36400
C2005       C  0.88360210  0.23554619  0.54517662    -0.27800
C2006       C  0.88155840  0.22127211  0.52990308     0.01800
C2007       C  0.87838719  0.24615917  0.51770843     0.29900
C2008       C  0.87972410  0.28593997  0.52088582    -0.19600
C2009       C  0.88448231  0.30147509  0.53615019    -0.29000
C2010       C  0.88512842  0.27515602  0.54836201     0.43900
C2011       C  0.88404455  0.18102914  0.52703668     0.05100
O2012       O  0.87531244  0.23263877  0.50264475    -0.57500
H2013       H  0.87902461  0.30556140  0.51134668     0.18000
O2014       O  0.88800263  0.28813074  0.56349183    -0.64200
H2015       H  0.88457453  0.21606789  0.55471889     0.16500
C2016       C  0.91845715  0.17666149  0.53348355     0.28700
C2017       C  0.91866104  0.13726784  0.53183677    -0.25100
C2018       C  0.88471659  0.10138476  0.52386127    -0.24400
C2019       C  0.85092262  0.10626156  0.51698955     0.40200
C2020       C  0.85091201  0.14593868  0.51857048    -0.26900
O2021       O  0.95255977  0.21116502  0.54115595    -0.58800
H2022       H  0.94545627  0.13479075  0.53698953     0.15800
O2023       O  0.81702219  0.07217692  0.50912645    -0.60200
H2024       H  0.82408464  0.14874275  0.51363064     0.14300
H2025       H  0.85717077  0.27696660  0.56680829     0.46100
H2026       H  0.94810473  0.20285153  0.55225100     0.41500
H2027       H  0.79351831  0.05655841  0.51692871     0.45000
H2028       H  0.90584812  0.24166267  0.49952405     0.36400
C2029       C  0.89546389  0.60249154  0.53331546    -0.27800
C2030       C  0.88158374  0.62073017  0.52170502     0.01800
C2031       C  0.86663900  0.59865432  0.50753792     0.29900
C2032       C  0.86381844  0.55802498  0.50533309    -0.19600
C2033       C  0.87510951  0.53796854  0.51719130    -0.29000
C2034       C  0.89213111  0.56126216  0.53119931     0.43900
C2035       C  0.88116893  0.66204055  0.52443780     0.05100
O2036       O  0.85516061  0.61691064  0.49568367    -0.57500
H2037       H  0.85174722  0.54188146  0.49428619     0.18000
O2038       O  0.90501205  0.54404282  0.54296117    -0.64200
H2039       H  0.90760773  0.61963196  0.54421549     0.16500
C2040       C  0.84104666  0.66196790  0.52471906     0.28700
C2041       C  0.84104867  0.70170211  0.52561264    -0.25100
C2042       C  0.88078751  0.74180128  0.52665268    -0.24400
C2043       C  0.92087461  0.74177847  0.52688133     0.40200
C2044       C  0.92087471  0.70200617  0.52578617    -0.26900
O2045       O  0.80169676  0.62319168  0.52386452    -0.58800
H2046       H  0.80997030  0.70123177  0.52549083     0.15800
O2047       O  0.96024131  0.78057631  0.52755564    -0.60200
H2048       H  0.95191912  0.70245238  0.52548672     0.14300
H2049       H  0.87856349  0.52763834  0.54955340     0.46100
H2050       H  0.79450398  0.61268544  0.53469560     0.41500
H2051       H  0.96858793  0.78939432  0.51662619     0.45000
H2052       H  0.82252335  0.60052522  0.49548999     0.36400
C2053       C  0.72063948  0.31040644  0.43735544    -0.27800
C2054       C  0.72513837  0.34751215  0.44508936     0.01800
C2055       C  0.70241120  0.36813167  0.43943887     0.29900
C2056       C  0.67670858  0.35245225  0.42608416    -0.19600
C2057       C  0.67230088  0.31553874  0.41812948    -0.29000
C2058       C  0.69435854  0.29420113  0.42404314     0.43900
C2059       C  0.75493265  0.36610866  0.45863301     0.05100
O2060       O  0.70513003  0.40384493  0.44691257    -0.57500
H2061       H  0.65988715  0.36928963  0.42203999     0.18000
O2062       O  0.69181602  0.25844738  0.41667113    -0.64200
H2063       H  0.73823112  0.29441802  0.44147776     0.16500
C2064       C  0.75007852  0.34093597  0.47197205     0.28700
C2065       C  0.77699194  0.36086729  0.48494730    -0.25100
C2066       C  0.80825147  0.40605799  0.48491606    -0.24400
C2067       C  0.81367576  0.43072684  0.47137973     0.40200
C2068       C  0.78761548  0.41060086  0.45838955    -0.26900
O2069       O  0.71830365  0.29731192  0.47263834    -0.58800
H2070       H  0.77216110  0.34140856  0.49525038     0.15800
O2071       O  0.84498303  0.47452436  0.47061404    -0.60200
H2072       H  0.79241236  0.43018582  0.44811825     0.14300
H2073       H  0.66869633  0.23248625  0.42228028     0.46100
H2074       H  0.69041632  0.29703740  0.47472493     0.41500
H2075       H  0.82841700  0.49048329  0.47116464     0.45000
H2076       H  0.68277645  0.39136303  0.45524873     0.36400
C2077       C  0.53210938  0.57054262  0.85371767    -0.27800
C2078       C  0.55455372  0.55590569  0.86324812     0.01800
C2079       C  0.57494926  0.57952410  0.87681178     0.29900
C2080       C  0.57482824  0.61825460  0.88021638    -0.19600
C2081       C  0.55389645  0.63416793  0.87040454    -0.29000
C2082       C  0.53102675  0.60889121  0.85731921     0.43900
C2083       C  0.55573879  0.51541351  0.85934605     0.05100
O2084       O  0.59522265  0.56504239  0.88684999    -0.57500
H2085       H  0.59174590  0.63603936  0.89058550     0.18000
O2086       O  0.50849909  0.62175773  0.84771684    -0.64200
H2087       H  0.51574804  0.55245259  0.84332750     0.16500
C2088       C  0.51659687  0.47534438  0.85661674     0.28700
C2089       C  0.51792437  0.43649101  0.85492406    -0.25100
C2090       C  0.55784718  0.43676500  0.85618891    -0.24400
C2091       C  0.59735861  0.47711521  0.85778145     0.40200
C2092       C  0.59611861  0.51610180  0.85935779    -0.26900
O2093       O  0.47663143  0.47339010  0.85634685    -0.58800
H2094       H  0.48733463  0.40568789  0.85343599     0.15800
O2095       O  0.63718102  0.47870772  0.85796111    -0.60200
H2096       H  0.62667401  0.54685727  0.86095558     0.14300
H2097       H  0.47752170  0.60515156  0.85130331     0.46100
H2098       H  0.46678110  0.46910007  0.86727698     0.41500
H2099       H  0.64566012  0.48039354  0.84693041     0.45000
H2100       H  0.57220982  0.54633208  0.89444006     0.36400
C2101       C  0.70785057  0.79588502  0.95142187    -0.27800
C2102       C  0.70679088  0.82586799  0.94096314     0.01800
C2103       C  0.73195719  0.87120676  0.94411179     0.29900
C2104       C  0.75860006  0.88590588  0.95732499    -0.19600
C2105       C  0.76154007  0.85596055  0.96733629    -0.29000
C2106       C  0.73526752  0.81043398  0.96435632     0.43900
C2107       C  0.68073529  0.80890241  0.92655396     0.05100
O2108       O  0.73190445  0.90144219  0.93410507    -0.57500
H2109       H  0.77829253  0.92097882  0.95939334     0.18000
O2110       O  0.73640725  0.77972096  0.97384426    -0.64200
H2111       H  0.68775861  0.76081602  0.94941059     0.16500
C2112       C  0.68539040  0.77850013  0.91734033     0.28700
C2113       C  0.65764485  0.75887250  0.90471502    -0.25100
C2114       C  0.62504869  0.76918973  0.90085511    -0.24400
C2115       C  0.62206900  0.80164424  0.90948561     0.40200
C2116       C  0.64970089  0.82109739  0.92230951    -0.26900
O2117       O  0.71772198  0.76849797  0.92042694    -0.58800
H2118       H  0.66154603  0.73504833  0.89798283     0.15800
O2119       O  0.59153229  0.81360463  0.90584160    -0.60200
H2120       H  0.64583055  0.84458919  0.92924950     0.14300
H2121       H  0.71450549  0.77393552  0.98207442     0.46100
H2122       H  0.70212642  0.73757767  0.92409082     0.41500
H2123       H  0.56424084  0.79206674  0.91125626     0.45000
H2124       H  0.75847875  0.91135058  0.92759968     0.36400
C2125       C  0.44662132  0.69128781  0.79827961    -0.27800
C2126       C  0.40902214  0.69420226  0.79488994     0.01800
C2127       C  0.39243166  0.71085296  0.80620808     0.29900
C2128       C  0.41438839  0.72608344  0.82033120    -0.19600
C2129       C  0.45299812  0.72505374  0.82347697    -0.29000
C2130       C  0.46871173  0.70671417  0.81245260     0.43900
C2131       C  0.38684812  0.67961316  0.77962747     0.05100
O2132       O  0.35414851  0.71140921  0.80366218    -0.57500
H2133       H  0.40161863  0.73961826  0.82876929     0.18000
O2134       O  0.50660498  0.70554142  0.81510021    -0.64200
H2135       H  0.45960576  0.67826847  0.78973206     0.16500
C2136       C  0.37940209  0.70806274  0.77031953     0.28700
C2137       C  0.35448642  0.69245442  0.75677599    -0.25100
C2138       C  0.33704616  0.64851820  0.75192515    -0.24400
C2139       C  0.34634856  0.62048485  0.76094054     0.40200
C2140       C  0.37136235  0.63639395  0.77459703    -0.26900
O2141       O  0.39627787  0.75132196  0.77438556    -0.58800
H2142       H  0.34898205  0.71522365  0.75003557     0.15800
O2143       O  0.33164475  0.57783148  0.75643774    -0.60200
H2144       H  0.37757161  0.61441300  0.78154081     0.14300
H2145       H  0.53085309  0.73470760  0.81175167     0.46100
H2146       H  0.42504185  0.76742864  0.76901707     0.41500
H2147       H  0.31826457  0.55925177  0.76572425     0.45000
H2148       H  0.36288931  0.74293702  0.80300733     0.36400
C2149       C  0.55713105  0.01577406  0.87001532    -0.27800
C2150       C  0.54889373  0.99288117  0.85598815     0.01800
C2151       C  0.54446127  0.01234065  0.84237806     0.29900
C2152       C  0.54608682  0.05295952  0.84303564    -0.19600
C2153       C  0.55279364  0.07543313  0.85714851    -0.29000
C2154       C  0.55888180  0.05654458  0.87070288     0.43900
C2155       C  0.53973148  0.94675039  0.85588909     0.05100
O2156       O  0.53747825  0.99134795  0.82840154    -0.57500
H2157       H  0.54171290  0.06673043  0.83243958     0.18000
O2158       O  0.56467627  0.07660131  0.88480949    -0.64200
H2159       H  0.56018209  0.00102690  0.88060424     0.16500
C2160       C  0.57134694  0.93553681  0.86048529     0.28700
C2161       C  0.56109682  0.89139179  0.86007592    -0.25100
C2162       C  0.51943623  0.85796710  0.85510651    -0.24400
C2163       C  0.48732901  0.86922503  0.85120525     0.40200
C2164       C  0.49777126  0.91319950  0.85144214    -0.26900
O2165       O  0.61253154  0.96750669  0.86508164    -0.58800
H2166       H  0.58627421  0.88354085  0.86313173     0.15800
O2167       O  0.44546867  0.83744480  0.84716561    -0.60200
H2168       H  0.47274682  0.92116287  0.84825689     0.14300
H2169       H  0.53454561  0.06548810  0.88890633     0.46100
H2170       H  0.63106777  0.97496614  0.85567490     0.41500
H2171       H  0.42831364  0.82990530  0.85691300     0.45000
H2172       H  0.56728941  0.00141957  0.82418280     0.36400
C2173       C  0.96328414  0.36555677  0.69786865    -0.27800
C2174       C  0.96075195  0.32922311  0.69028155     0.01800
C2175       C  0.99927043  0.33160604  0.68444846     0.29900
C2176       C  0.03936896  0.37093505  0.68548769    -0.19600
C2177       C  0.04172830  0.40820145  0.69240480    -0.29000
C2178       C  0.00332794  0.40495498  0.69893732     0.43900
C2179       C  0.91738376  0.29033498  0.68727634     0.05100
O2180       O  0.99777254  0.29598809  0.67734063    -0.57500
H2181       H  0.06855566  0.37242240  0.68067437     0.18000
O2182       O  0.00403376  0.44050007  0.70579691    -0.64200
H2183       H  0.93374313  0.36401269  0.70234176     0.16500
C2184       C  0.88947043  0.26512762  0.69942128     0.28700
C2185       C  0.84991911  0.22653934  0.69607083    -0.25100
C2186       C  0.83779455  0.21325140  0.68067504    -0.24400
C2187       C  0.86403847  0.24059201  0.66856776     0.40200
C2188       C  0.90370440  0.27871088  0.67192035    -0.26900
O2189       O  0.90185661  0.27651301  0.71453823    -0.58800
H2190       H  0.82985843  0.20592887  0.70549892     0.15800
O2191       O  0.85074429  0.23060745  0.65345117    -0.60200
H2192       H  0.92414034  0.29906248  0.66250361     0.14300
H2193       H  0.99651250  0.45492504  0.69743482     0.46100
H2194       H  0.88519847  0.29076648  0.71809967     0.41500
H2195       H  0.86776786  0.21750609  0.64918600     0.45000
H2196       H  0.00164963  0.27915081  0.68579072     0.36400
C2197       C  0.75438468  0.02266385  0.63059437    -0.27800
C2198       C  0.79773115  0.03641825  0.62597414     0.01800
C2199       C  0.83288681  0.06790815  0.63499663     0.29900
C2200       C  0.82464965  0.08773833  0.64756357    -0.19600
C2201       C  0.78140506  0.07614147  0.65162847    -0.29000
C2202       C  0.74604266  0.04203079  0.64336846     0.43900
C2203       C  0.80640538  0.01995453  0.61130550     0.05100
O2204       O  0.87559850  0.08034056  0.63139787    -0.57500
H2205       H  0.85238520  0.11291565  0.65399125     0.18000
O2206       O  0.70325663  0.02851842  0.64723722    -0.64200
H2207       H  0.72690681  0.99811758  0.62390319     0.16500
C2208       C  0.78789684  0.97467094  0.60834719     0.28700
C2209       C  0.79777468  0.96037239  0.59456424    -0.25100
C2210       C  0.82663513  0.99065632  0.58357491    -0.24400
C2211       C  0.84433219  0.03610149  0.58643421     0.40200
C2212       C  0.83410620  0.05024712  0.60015237    -0.26900
O2213       O  0.76108019  0.94408557  0.61902988    -0.58800
H2214       H  0.78389165  0.92538419  0.59272211     0.15800
O2215       O  0.87188103  0.06710217  0.57598023    -0.60200
H2216       H  0.84802136  0.08521309  0.60211010     0.14300
H2217       H  0.69607616  0.04881159  0.64168957     0.46100
H2218       H  0.78132534  0.94236251  0.62662806     0.41500
H2219       H  0.85280423  0.07478968  0.56986076     0.45000
H2220       H  0.88009990  0.05654037  0.63549753     0.36400
C2221       C  0.55085336  0.91110780  0.68415390    -0.27800
C2222       C  0.50962608  0.89942994  0.69054731     0.01800
C2223       C  0.50379681  0.93227209  0.69760196     0.29900
C2224       C  0.53923042  0.97492217  0.69909773    -0.19600
C2225       C  0.58098943  0.98646942  0.69330348    -0.29000
C2226       C  0.58631471  0.95434114  0.68534602     0.43900
C2227       C  0.47326503  0.85292216  0.69063519     0.05100
O2228       O  0.46357680  0.92286718  0.70332119    -0.57500
H2229       H  0.53381655  0.99905921  0.70493795     0.18000
O2230       O  0.62607754  0.96429217  0.67905153    -0.64200
H2231       H  0.55609207  0.88639615  0.67869242     0.16500
C2232       C  0.45987625  0.82687959  0.67714428     0.28700
C2233       C  0.42278707  0.78453164  0.67753610    -0.25100
C2234       C  0.39836425  0.76769526  0.69123340    -0.24400
C2235       C  0.41343732  0.79295484  0.70489457     0.40200
C2236       C  0.45059233  0.83484782  0.70451071    -0.26900
O2237       O  0.48093232  0.84351909  0.66333301    -0.58800
H2238       H  0.41222341  0.76558302  0.66693250     0.15800
O2239       O  0.39172562  0.77748245  0.71868235    -0.60200
H2240       H  0.46132888  0.85370631  0.71513991     0.14300
H2241       H  0.64287214  0.96089651  0.68763570     0.46100
H2242       H  0.49783222  0.82838056  0.66131790     0.41500
H2243       H  0.40666153  0.76340567  0.72388506     0.45000
H2244       H  0.44962924  0.93079736  0.69491151     0.36400
C2245       C  0.60530521  0.13878374  0.78052545    -0.27800
C2246       C  0.63014050  0.17018744  0.76923264     0.01800
C2247       C  0.64638483  0.21502196  0.77236054     0.29900
C2248       C  0.63650418  0.22772025  0.78648121    -0.19600
C2249       C  0.61045010  0.19613594  0.79761485    -0.29000
C2250       C  0.59561423  0.15137848  0.79462929     0.43900
C2251       C  0.63593262  0.15488496  0.75393643     0.05100
O2252       O  0.66941702  0.24627858  0.76131863    -0.57500
H2253       H  0.64799331  0.26224784  0.78849059     0.18000
O2254       O  0.57145226  0.11957381  0.80536775    -0.64200
H2255       H  0.59294375  0.10417471  0.77830154     0.16500
C2256       C  0.67781236  0.16684068  0.74803945     0.28700
C2257       C  0.68153270  0.14879259  0.73403736    -0.25100
C2258       C  0.64376420  0.11801895  0.72592209    -0.24400
C2259       C  0.60191608  0.10725072  0.73169082     0.40200
C2260       C  0.59836934  0.12554401  0.74556061    -0.26900
O2261       O  0.71515109  0.19459448  0.75617665    -0.58800
H2262       H  0.71398913  0.15740397  0.72990809     0.15800
O2263       O  0.56407129  0.07818490  0.72405209    -0.60200
H2264       H  0.56594523  0.11624411  0.74994242     0.14300
H2265       H  0.59353764  0.11831508  0.81216956     0.46100
H2266       H  0.72059683  0.17518021  0.76301874     0.41500
H2267       H  0.55633599  0.09669730  0.71763089     0.45000
H2268       H  0.70040877  0.26176006  0.76492869     0.36400
loop_ 
_geom_bond_atom_site_label_1 
_geom_bond_atom_site_label_2 
_geom_bond_distance 
_geom_bond_site_symmetry_2 
_ccdc_geom_bond_type 
C1            N2   1.354       .  A
C1            N6   1.358       .  A
C1         C2258   1.483       .  S
N2            C3   1.356       .  A
C3            N4   1.357       .  A
C3         C2225   1.483   1_545  S
N4            C5   1.360       .  A
C5            N6   1.361       .  A
C5           C11   1.466       .  S
C7            N8   1.356       .  A
C7           N12   1.358       .  A
C7         C2201   1.484       .  S
N8            C9   1.355       .  A
C9           N10   1.357       .  A
C9         C2186   1.470       .  S
N10          C11   1.359       .  A
C11          N12   1.360       .  A
C13          N14   1.355       .  A
C13          N18   1.358       .  A
C13        C2129   1.476       .  S
N14          C15   1.356       .  A
C15          N16   1.361       .  A
C15        C2162   1.485       .  S
N16          C17   1.363       .  A
C17          N18   1.362       .  A
C17          C21   1.472       .  S
C19          N20   1.358       .  A
C19          N24   1.354       .  A
C19        C2114   1.479       .  S
N20          C21   1.362       .  A
C21          N22   1.363       .  A
N22          C23   1.360       .  A
C23          N24   1.353       .  A
C23        C2081   1.489       .  S
C25          N26   1.358       .  A
C25          N30   1.353       .  A
C25        C2066   1.482       .  S
N26          C27   1.363       .  A
C27          N28   1.364       .  A
C27          C33   1.472       .  S
N28          C29   1.361       .  A
C29          N30   1.355       .  A
C29        C2033   1.491       .  S
C31          N32   1.360       .  A
C31          N36   1.353       .  A
C31        C1985   1.483       .  S
N32          C33   1.363       .  A
C33          N34   1.362       .  A
N34          C35   1.358       .  A
C35          N36   1.352       .  A
C35        C2009   1.479       .  S
C37          N38   1.363   1_556  A
C37          N42   1.353       .  A
C37        C1937   1.488       .  S
N38          C39   1.368       .  A
C39          N40   1.360       .  A
C39          C47   1.473       .  S
N40          C41   1.356       .  A
C41          N42   1.353   1_554  A
C41        C1961   1.480       .  S
C43          N44   1.355       .  A
C43          N48   1.361       .  A
C43        C1913   1.486       .  S
N44          C45   1.357       .  A
C45          N46   1.358       .  A
C45        C1898   1.479       .  S
N46          C47   1.359       .  A
C47          N48   1.365       .  A
C49          N50   1.356       .  A
C49          N54   1.357   1_655  A
C49        C1841   1.475       .  S
N50          C51   1.357       .  A
C51          N52   1.358       .  A
C51        C1874   1.484       .  S
N52          C53   1.359   1_655  A
C53          N54   1.362       .  A
C53          C57   1.467       .  S
C55          N56   1.361       .  A
C55          N60   1.357       .  A
C55        C1826   1.486       .  S
N56          C57   1.364       .  A
C57          N58   1.359       .  A
N58          C59   1.356       .  A
C59          N60   1.355       .  A
C59        C1793   1.476       .  S
C61          N62   1.360       .  A
C61          N66   1.356       .  A
C61        C1754   1.488       .  S
N62          C63   1.362       .  A
C63          N64   1.359       .  A
C63          C69   1.470       .  S
N64          C65   1.358       .  A
C65          N66   1.356       .  A
C65        C1778   1.477       .  S
C67          N68   1.362       .  A
C67          N72   1.352       .  A
C67        C1706   1.485       .  S
N68          C69   1.365       .  A
C69          N70   1.360       .  A
N70          C71   1.355       .  A
C71          N72   1.351       .  A
C71        C1730   1.465   1_545  S
C73          N74   1.361       .  A
C73          N78   1.353       .  A
C73        C1673   1.483       .  S
N74          C75   1.365       .  A
C75          N76   1.360       .  A
C75          C83   1.472       .  S
N76          C77   1.358   1_455  A
C77          N78   1.353   1_655  A
C77        C1658   1.475       .  S
C79          N80   1.356       .  A
C79          N84   1.363       .  A
C79        C1625   1.487       .  S
N80          C81   1.355       .  A
C81          N82   1.356       .  A
C81        C1601   1.471       .  S
N82          C83   1.358       .  A
C83          N84   1.364       .  A
C85          N86   1.359       .  A
C85          N90   1.359       .  A
C85        C1577   1.487       .  S
N86          C87   1.361       .  A
C87          N88   1.357       .  A
C87          C93   1.466       .  S
N88          C89   1.354       .  A
C89          N90   1.357       .  A
C89        C1562   1.463       .  S
C91          N92   1.360       .  A
C91          N96   1.360       .  A
C91        C1505   1.493       .  S
N92          C93   1.361       .  A
C93          N94   1.357       .  A
N94          C95   1.355       .  A
C95          N96   1.357       .  A
C95        C1538   1.476       .  S
C97          N98   1.358       .  A
C97         N102   1.362       .  A
C97        C1481   1.495       .  S
N98          C99   1.358       .  A
C99         N100   1.354       .  A
C99        C1466   1.480       .  S
N100        C101   1.356       .  A
C101        N102   1.364       .  A
C101        C107   1.468       .  S
C103        N104   1.352       .  A
C103        N108   1.361       .  A
C103       C1409   1.486       .  S
N104        C105   1.353       .  A
C105        N106   1.356       .  A
C105       C1433   1.473       .  S
N106        C107   1.359       .  A
C107        N108   1.367       .  A
C109        N110   1.356   1_556  A
C109        N114   1.362   1_556  A
C109       C1361   1.490       .  S
N110        C111   1.355       .  A
C111        N112   1.358       .  A
C111       C1394   1.479       .  S
N112        C113   1.361       .  A
C113        N114   1.366       .  A
C113        C119   1.475       .  S
C115        N116   1.357       .  A
C115        N120   1.363       .  A
C115       C1346   1.488       .  S
N116        C117   1.357       .  A
C117        N118   1.358       .  A
C117       C1313   1.489       .  S
N118        C119   1.360       .  A
C119        N120   1.366       .  A
C121        N122   1.354       .  A
C121        N126   1.365       .  A
C121       C1265   1.491       .  S
N122        C123   1.352       .  A
C123        N124   1.355       .  A
C123       C1289   1.472       .  S
N124        C125   1.360       .  A
C125        N126   1.367       .  A
C125        C131   1.474       .  S
C127        N128   1.356       .  A
C127        N132   1.359       .  A
C127       C1250   1.489       .  S
N128        C129   1.356       .  A
C129        N130   1.362       .  A
C129       C1217   1.488   1_455  S
N130        C131   1.361       .  A
C131        N132   1.363       .  A
C133        N134   1.361       .  A
C133        N138   1.357       .  A
C133       C1178   1.487       .  S
N134        C135   1.362       .  A
C135        N136   1.358       .  A
C135        C143   1.469       .  S
N136        C137   1.355       .  A
C137        N138   1.355       .  A
C137       C1202   1.477       .  S
C139        N140   1.357       .  A
C139        N144   1.357       .  A
C139       C1130   1.484       .  S
N140        C141   1.357       .  A
C141        N142   1.361       .  A
C141       C1145   1.487   1_545  S
N142        C143   1.361       .  A
C143        N144   1.361       .  A
C145        N146   1.363       .  A
C145        N150   1.356       .  A
C145       C1097   1.490       .  S
N146        C147   1.366       .  A
C147        N148   1.362       .  A
C147        C155   1.476       .  S
N148        C149   1.358       .  A
C149        N150   1.353       .  A
C149       C1082   1.479       .  S
C151        N152   1.355       .  A
C151        N156   1.360       .  A
C151       C1058   1.483       .  S
N152        C153   1.356       .  A
C153        N154   1.361       .  A
C153       C1025   1.484       .  S
N154        C155   1.361       .  A
C155        N156   1.363       .  A
C157        N158   1.360       .  A
C157        N162   1.357       .  A
C157       C1010   1.490       .  S
N158        C159   1.363       .  A
C159        N160   1.362       .  A
C159        C167   1.470       .  S
N160        C161   1.357       .  A
C161        N162   1.354       .  A
C161        C977   1.477       .  S
C163        N164   1.356   1_545  A
C163        N168   1.357       .  A
C163        C962   1.476       .  S
N164        C165   1.358       .  A
C165        N166   1.360   1_565  A
C165        C938   1.486       .  S
N166        C167   1.361       .  A
C167        N168   1.360       .  A
C169        N170   1.362       .  A
C169        N174   1.355       .  A
C169        C881   1.484       .  S
N170        C171   1.363       .  A
C171        N172   1.361       .  A
C171        C177   1.473       .  S
N172        C173   1.357       .  A
C173        N174   1.353       .  A
C173        C905   1.480       .  S
C175        N176   1.358       .  A
C175        N180   1.355       .  A
C175        C842   1.479       .  S
N176        C177   1.361       .  A
C177        N178   1.363       .  A
N178        C179   1.362       .  A
C179        N180   1.356       .  A
C179        C857   1.484       .  S
C181        N182   1.362       .  A
C181        N186   1.355       .  A
C181        C794   1.494       .  S
N182        C183   1.367       .  A
C183        N184   1.363       .  A
C183        C189   1.478       .  S
N184        C185   1.360       .  A
C185        N186   1.354       .  A
C185        C809   1.483       .  S
C187        N188   1.363       .  A
C187        N192   1.354       .  A
C187        C770   1.482       .  S
N188        C189   1.366       .  A
C189        N190   1.361       .  A
N190        C191   1.359       .  A
C191        N192   1.354       .  A
C191        C737   1.490       .  S
C193        N194   1.353       .  A
C193        N198   1.360       .  A
C193        C713   1.484   1_554  S
N194        C195   1.353       .  A
C195        N196   1.360       .  A
C195        C689   1.483       .  S
N196        C197   1.363       .  A
C197        N198   1.363       .  A
C197        C201   1.473       .  S
C199        N200   1.360       .  A
C199        N204   1.355       .  A
C199        C641   1.482       .  S
N200        C201   1.363       .  A
C201        N202   1.362       .  A
N202        C203   1.359       .  A
C203        N204   1.355       .  A
C203        C665   1.479       .  S
C205        N206   1.355       .  A
C205        N210   1.357       .  A
C205        C602   1.482       .  S
N206        C207   1.354       .  A
C207        N208   1.359       .  A
C207        C617   1.478       .  S
N208        C209   1.360       .  A
C209        N210   1.361       .  A
C209        C213   1.469       .  S
C211        N212   1.363   1_655  A
C211        N216   1.358       .  A
C211        C554   1.490       .  S
N212        C213   1.365       .  A
C213        N214   1.359       .  A
N214        C215   1.354   1_455  A
C215        N216   1.353       .  A
C215        C578   1.472       .  S
O217       Zr253   2.435       .  S
O217        C228   1.292       .  A
O218       Zr252   2.415       .  S
O218        C229   1.288       .  A
O219       Zr225   2.440       .  S
O219        C230   1.293       .  A
O220       Zr225   2.445       .  S
O220        C231   1.294       .  A
O221       Zr255   2.437       .  S
O221        C231   1.292       .  A
O222       Zr254   2.431       .  S
O222        C230   1.290       .  A
O223       Zr225   2.446       .  S
O223        C229   1.295       .  A
O224       Zr225   2.440       .  S
O224        C228   1.293       .  A
Zr225       O226   2.336       .  S
Zr225       O227   2.341       .  S
Zr225       O235   2.343       .  S
Zr225       O233   2.338       .  S
O226       Zr252   2.343       .  S
O226       Zr255   2.339       .  S
O227       Zr253   2.338       .  S
O227       Zr254   2.337       .  S
C228       C2249   1.480       .  S
C229       C1649   1.475       .  S
C230       C1514   1.473       .  S
C231        C569   1.493       .  S
H232        O233   0.965       .  S
O233       Zr252   2.340       .  S
O233       Zr254   2.343       .  S
H234        O235   0.966       .  S
O235       Zr253   2.342       .  S
O235       Zr255   2.337       .  S
O236       Zr252   2.433       .  S
O236        C259   1.292       .  A
O237       Zr253   2.441       .  S
O237        C260   1.294       .  A
O238       Zr254   2.425       .  S
O238        C261   1.289       .  A
O239       Zr255   2.432       .  S
O239        C262   1.292       .  A
O240       Zr255   2.449       .  S
O240        C263   1.294       .  A
O241       Zr254   2.438       .  S
O241        C264   1.292       .  A
O242       Zr256   2.440       .  S
O242        C265   1.292       .  A
O243       Zr256   2.448       .  S
O243        C266   1.295       .  A
O244       Zr254   2.435       .  S
O244        C265   1.292       .  A
O245       Zr255   2.437       .  S
O245        C266   1.292       .  A
O246       Zr252   2.450       .  S
O246        C261   1.294       .  A
O247       Zr253   2.455       .  S
O247        C264   1.295       .  A
O248       Zr253   2.450       .  S
O248        C263   1.295       .  A
O249       Zr252   2.436       .  S
O249        C262   1.292       .  A
O250       Zr256   2.456       .  S
O250        C259   1.295       .  A
O251       Zr256   2.425       .  S
O251        C260   1.290       .  A
Zr252       O258   2.338       .  S
Zr252       O270   2.340       .  S
Zr253       O257   2.344       .  S
Zr253       O268   2.343       .  S
Zr254       O258   2.344       .  S
Zr254       O268   2.333       .  S
Zr255       O257   2.337       .  S
Zr255       O270   2.345       .  S
Zr256       O257   2.345       .  S
Zr256       O258   2.340       .  S
Zr256       O270   2.332       .  S
Zr256       O268   2.348       .  S
C259       C1946   1.490       .  S
C260       C1610   1.487       .  S
C261       C2090   1.471       .  S
C262        C722   1.481       .  S
C263       C2153   1.493       .  S
C264       C1001   1.485       .  S
C265        C626   1.481       .  S
C266       C1370   1.485       .  S
H267        O268   0.965       .  S
H269        O270   0.966       .  S
O271       Zr307   2.420   1_556  S
O271        C282   1.289       .  A
O272       Zr306   2.434   1_545  S
O272        C283   1.291       .  A
O273       Zr279   2.425       .  S
O273        C284   1.289       .  A
O274       Zr279   2.431   1_546  S
O274        C285   1.291       .  A
O275       Zr309   2.454   1_546  S
O275        C285   1.295       .  A
O276       Zr308   2.471       .  S
O276        C284   1.298       .  A
O277       Zr279   2.433   1_545  S
O277        C283   1.293       .  A
O278       Zr279   2.441   1_556  S
O278        C282   1.293       .  A
Zr279       O280   2.338       .  S
Zr279       O281   2.330       .  S
Zr279       O289   2.338   1_554  S
Zr279       O287   2.340       .  S
O280       Zr306   2.340       .  S
O280       Zr309   2.332       .  S
O281       Zr307   2.341       .  S
O281       Zr308   2.336       .  S
C282       C2105   1.480       .  S
C283        C698   1.481       .  S
C284       C1322   1.485       .  S
C285        C545   1.483       .  S
H286        O287   0.965       .  S
O287       Zr306   2.354       .  S
O287       Zr308   2.331       .  S
H288        O289   0.967       .  S
O289       Zr307   2.347   1_556  S
O289       Zr309   2.342   1_556  S
O290       Zr306   2.456       .  S
O290        C313   1.296       .  A
O291       Zr307   2.436       .  S
O291        C314   1.292       .  A
O292       Zr308   2.458       .  S
O292        C315   1.297       .  A
O293       Zr309   2.437   1_445  S
O293        C316   1.292       .  A
O294       Zr309   2.424   1_556  S
O294        C317   1.290       .  A
O295       Zr308   2.428       .  S
O295        C318   1.291       .  A
O296       Zr310   2.439       .  S
O296        C319   1.293       .  A
O297       Zr310   2.425       .  S
O297        C320   1.290   1_655  A
O298       Zr308   2.442       .  S
O298        C319   1.293       .  A
O299       Zr309   2.444   1_455  S
O299        C320   1.294       .  A
O300       Zr306   2.421       .  S
O300        C315   1.289       .  A
O301       Zr307   2.446       .  S
O301        C318   1.294       .  A
O302       Zr307   2.461   1_556  S
O302        C317   1.297       .  A
O303       Zr306   2.440   1_545  S
O303        C316   1.293   1_655  A
O304       Zr310   2.423       .  S
O304        C313   1.289       .  A
O305       Zr310   2.438       .  S
O305        C314   1.292       .  A
Zr306       O312   2.335       .  S
Zr306       O324   2.336       .  S
Zr307       O311   2.329       .  S
Zr307       O322   2.348       .  S
Zr308       O312   2.340       .  S
Zr308       O322   2.357       .  S
Zr309       O311   2.341       .  S
Zr309       O324   2.345       .  S
Zr310       O311   2.335       .  S
Zr310       O312   2.335       .  S
Zr310       O324   2.348       .  S
Zr310       O322   2.336       .  S
C313       C1745   1.485   1_655  S
C314        C674   1.491       .  S
C315       C1121   1.484       .  S
C316       C1889   1.483       .  S
C317       C1634   1.494       .  S
C318       C1970   1.475       .  S
C319        C761   1.491       .  S
C320       C1385   1.480       .  S
H321        O322   0.965       .  S
H323        O324   0.965       .  S
O325       Zr361   2.444       .  S
O325        C336   1.294       .  A
O326       Zr360   2.441       .  S
O326        C337   1.293       .  A
O327       Zr333   2.438       .  S
O327        C338   1.293       .  A
O328       Zr333   2.446       .  S
O328        C339   1.293       .  A
O329       Zr363   2.444       .  S
O329        C339   1.294       .  A
O330       Zr362   2.437       .  S
O330        C338   1.293       .  A
O331       Zr333   2.437       .  S
O331        C337   1.292       .  A
O332       Zr333   2.437       .  S
O332        C336   1.291       .  A
Zr333       O334   2.341       .  S
Zr333       O335   2.345       .  S
Zr333       O343   2.340       .  S
Zr333       O341   2.345       .  S
O334       Zr360   2.348       .  S
O334       Zr363   2.338       .  S
O335       Zr361   2.337       .  S
O335       Zr362   2.338       .  S
C336       C2057   1.492       .  S
C337       C1034   1.482       .  S
C338        C890   1.482       .  S
C339       C1226   1.489       .  S
H340        O341   0.965       .  S
O341       Zr360   2.342       .  S
O341       Zr362   2.343       .  S
H342        O343   0.965       .  S
O343       Zr361   2.347       .  S
O343       Zr363   2.344       .  S
O344       Zr360   2.459       .  S
O344        C367   1.296       .  A
O345       Zr361   2.450       .  S
O345        C368   1.295       .  A
O346       Zr362   2.438       .  S
O346        C369   1.292       .  A
O347       Zr363   2.447       .  S
O347        C370   1.295       .  A
O348       Zr363   2.447       .  S
O348        C371   1.294       .  A
O349       Zr362   2.455       .  S
O349        C372   1.296       .  A
O350       Zr364   2.437       .  S
O350        C373   1.292       .  A
O351       Zr364   2.454       .  S
O351        C374   1.296       .  A
O352       Zr362   2.437       .  S
O352        C373   1.293       .  A
O353       Zr363   2.435       .  S
O353        C374   1.292       .  A
O354       Zr360   2.436       .  S
O354        C369   1.293       .  A
O355       Zr361   2.448       .  S
O355        C372   1.293       .  A
O356       Zr361   2.420       .  S
O356        C371   1.290       .  A
O357       Zr360   2.433       .  S
O357        C370   1.291       .  A
O358       Zr364   2.443       .  S
O358        C367   1.293       .  A
O359       Zr364   2.428       .  S
O359        C368   1.291       .  A
Zr360       O366   2.341       .  S
Zr360       O378   2.338       .  S
Zr361       O365   2.345       .  S
Zr361       O376   2.331       .  S
Zr362       O366   2.348       .  S
Zr362       O376   2.334       .  S
Zr363       O365   2.342       .  S
Zr363       O378   2.343       .  S
Zr364       O365   2.336       .  S
Zr364       O366   2.343       .  S
Zr364       O378   2.333       .  S
Zr364       O376   2.346       .  S
C367       C1697   1.495       .  S
C368       C1073   1.487       .  S
C369       C1802   1.486       .  S
C370       C1169   1.483       .  S
C371       C1865   1.480       .  S
C372       C1490   1.490       .  S
C373       C1298   1.489       .  S
C374        C785   1.487       .  S
H375        O376   0.965       .  S
H377        O378   0.967       .  S
O379       Zr415   2.430       .  S
O379        C390   1.291       .  A
O380       Zr414   2.432       .  S
O380        C391   1.292       .  A
O381       Zr387   2.435       .  S
O381        C392   1.292       .  A
O382       Zr387   2.441       .  S
O382        C393   1.294       .  A
O383       Zr417   2.449       .  S
O383        C393   1.294       .  A
O384       Zr416   2.438       .  S
O384        C392   1.293       .  A
O385       Zr387   2.446       .  S
O385        C391   1.294       .  A
O386       Zr387   2.436       .  S
O386        C390   1.293       .  A
Zr387       O388   2.335       .  S
Zr387       O389   2.339       .  S
Zr387       O397   2.340       .  S
Zr387       O395   2.343       .  S
O388       Zr414   2.336       .  S
O388       Zr417   2.336       .  S
O389       Zr415   2.341       .  S
O389       Zr416   2.334       .  S
C390       C2234   1.481       .  S
C391       C1682   1.483       .  S
C392        C929   1.481       .  S
C393       C2138   1.496       .  S
H394        O395   0.965       .  S
O395       Zr414   2.339       .  S
O395       Zr416   2.339       .  S
H396        O397   0.966       .  S
O397       Zr415   2.346       .  S
O397       Zr417   2.333       .  S
O398       Zr414   2.415       .  S
O398        C421   1.288       .  A
O399       Zr415   2.444       .  S
O399        C422   1.294       .  A
O400       Zr416   2.448       .  S
O400        C423   1.294       .  A
O401       Zr417   2.423       .  S
O401        C424   1.290       .  A
O402       Zr417   2.422       .  S
O402        C425   1.289       .  A
O403       Zr416   2.433       .  S
O403        C426   1.292       .  A
O404       Zr418   2.442       .  S
O404        C427   1.294       .  A
O405       Zr418   2.441       .  S
O405        C428   1.293       .  A
O406       Zr416   2.425       .  S
O406        C427   1.289       .  A
O407       Zr417   2.431       .  S
O407        C428   1.291       .  A
O408       Zr414   2.437       .  S
O408        C423   1.292       .  A
O409       Zr415   2.446       .  S
O409        C426   1.294       .  A
O410       Zr415   2.443       .  S
O410        C425   1.294       .  A
O411       Zr414   2.435       .  S
O411        C424   1.291       .  A
O412       Zr418   2.442       .  S
O412        C421   1.294       .  A
O413       Zr418   2.442       .  S
O413        C422   1.293       .  A
Zr414       O420   2.337       .  S
Zr414       O432   2.340       .  S
Zr415       O419   2.332       .  S
Zr415       O430   2.341       .  S
Zr416       O420   2.338       .  S
Zr416       O430   2.346       .  S
Zr417       O419   2.340       .  S
Zr417       O432   2.336       .  S
Zr418       O419   2.339       .  S
Zr418       O420   2.338       .  S
Zr418       O432   2.340       .  S
Zr418       O430   2.341       .  S
C421       C2177   1.475       .  S
C422       C1418   1.487       .  S
C423       C1529   1.495       .  S
C424        C593   1.477       .  S
C425       C1553   1.480       .  S
C426        C833   1.486       .  S
C427       C1994   1.473       .  S
C428        C986   1.487       .  S
H429        O430   0.966       .  S
H431        O432   0.965       .  S
O433       Zr469   2.444       .  S
O433        C444   1.293       .  A
O434       Zr468   2.458       .  S
O434        C445   1.296       .  A
O435       Zr441   2.445       .  S
O435        C446   1.295       .  A
O436       Zr441   2.454       .  S
O436        C447   1.295       .  A
O437       Zr471   2.426       .  S
O437        C447   1.291       .  A
O438       Zr470   2.428       .  S
O438        C446   1.290       .  A
O439       Zr441   2.435       .  S
O439        C445   1.292       .  A
O440       Zr441   2.445       .  S
O440        C444   1.294       .  A
Zr441       O442   2.341       .  S
Zr441       O443   2.337       .  S
Zr441       O451   2.341       .  S
Zr441       O449   2.344       .  S
O442       Zr468   2.344       .  S
O442       Zr471   2.336       .  S
O443       Zr469   2.330       .  S
O443       Zr470   2.333       .  S
C444       C1922   1.494       .  S
C445       C1154   1.490       .  S
C446       C1337   1.488       .  S
C447        C818   1.485       .  S
H448        O449   0.965       .  S
O449       Zr468   2.342       .  S
O449       Zr470   2.340       .  S
H450        O451   0.966       .  S
O451       Zr469   2.342       .  S
O451       Zr471   2.348       .  S
O452       Zr468   2.460       .  S
O452        C475   1.297       .  A
O453       Zr469   2.429       .  S
O453        C476   1.291       .  A
O454       Zr470   2.427       .  S
O454        C477   1.290       .  A
O455       Zr471   2.458       .  S
O455        C478   1.296       .  A
O456       Zr471   2.448       .  S
O456        C479   1.295       .  A
O457       Zr470   2.442       .  S
O457        C480   1.293       .  A
O458       Zr472   2.454       .  S
O458        C481   1.295       .  A
O459       Zr472   2.443       .  S
O459        C482   1.294       .  A
O460       Zr470   2.424       .  S
O460        C481   1.290       .  A
O461       Zr471   2.431       .  S
O461        C482   1.292       .  A
O462       Zr468   2.427       .  S
O462        C477   1.291       .  A
O463       Zr469   2.444       .  S
O463        C480   1.293       .  A
O464       Zr469   2.442       .  S
O464        C479   1.293       .  A
O465       Zr468   2.423       .  S
O465        C478   1.289       .  A
O466       Zr472   2.439       .  S
O466        C475   1.292       .  A
O467       Zr472   2.430       .  S
O467        C476   1.291       .  A
Zr468       O474   2.338       .  S
Zr468       O486   2.342       .  S
Zr469       O473   2.343       .  S
Zr469       O484   2.342       .  S
Zr470       O474   2.337       .  S
Zr470       O484   2.334       .  S
Zr471       O473   2.340       .  S
Zr471       O486   2.345       .  S
Zr472       O473   2.343       .  S
Zr472       O474   2.338       .  S
Zr472       O486   2.344       .  S
Zr472       O484   2.342       .  S
C475       C1817   1.493       .  S
C476       C1193   1.475       .  S
C477       C1721   1.481       .  S
C478       C1106   1.478       .  S
C479       C1769   1.495       .  S
C480        C650   1.493       .  S
C481        C746   1.484       .  S
C482       C1241   1.483       .  S
H483        O484   0.965       .  S
H485        O486   0.967       .  S
O487       Zr523   2.435   1_545  S
O487        C498   1.291   1_545  A
O488       Zr522   2.435       .  S
O488        C499   1.292       .  A
O489       Zr495   2.439       .  S
O489        C500   1.293       .  A
O490       Zr495   2.463       .  S
O490        C501   1.298       .  A
O491       Zr525   2.427       .  S
O491        C501   1.290       .  A
O492       Zr524   2.427       .  S
O492        C500   1.291       .  A
O493       Zr495   2.431       .  S
O493        C499   1.292       .  A
O494       Zr495   2.460       .  S
O494        C498   1.296       .  A
Zr495       O496   2.344       .  S
Zr495       O497   2.339       .  S
Zr495       O505   2.332       .  S
Zr495       O503   2.349       .  S
O496       Zr522   2.341       .  S
O496       Zr525   2.334       .  S
O497       Zr523   2.334       .  S
O497       Zr524   2.348       .  S
C498       C2210   1.491       .  S
C499       C1442   1.481       .  S
C500        C914   1.478       .  S
C501       C1586   1.483       .  S
H502        O503   0.965       .  S
O503       Zr522   2.339       .  S
O503       Zr524   2.338       .  S
H504        O505   0.967       .  S
O505       Zr523   2.338       .  S
O505       Zr525   2.343       .  S
O506       Zr522   2.446       .  S
O506        C529   1.294       .  A
O507       Zr523   2.422   1_545  S
O507        C530   1.289   1_655  A
O508       Zr524   2.454       .  S
O508        C531   1.296       .  A
O509       Zr525   2.441       .  S
O509        C532   1.292       .  A
O510       Zr525   2.425       .  S
O510        C533   1.291       .  A
O511       Zr524   2.442   1_545  S
O511        C534   1.293       .  A
O512       Zr526   2.455       .  S
O512        C535   1.296   1_565  A
O513       Zr526   2.441   1_455  S
O513        C536   1.293       .  A
O514       Zr524   2.445       .  S
O514        C535   1.293   1_565  A
O515       Zr525   2.431       .  S
O515        C536   1.292   1_655  A
O516       Zr522   2.430       .  S
O516        C531   1.290       .  A
O517       Zr523   2.427   1_545  S
O517        C534   1.291       .  A
O518       Zr523   2.443       .  S
O518        C533   1.292       .  A
O519       Zr522   2.435       .  S
O519        C532   1.291       .  A
O520       Zr526   2.437       .  S
O520        C529   1.293       .  A
O521       Zr526   2.431   1_445  S
O521        C530   1.291       .  A
Zr522       O528   2.343       .  S
Zr522       O540   2.335       .  S
Zr523       O527   2.336       .  S
Zr523       O538   2.352       .  S
Zr524       O528   2.337       .  S
Zr524       O538   2.342       .  S
Zr525       O527   2.333       .  S
Zr525       O540   2.334       .  S
Zr526       O527   2.341       .  S
Zr526       O528   2.339       .  S
Zr526       O540   2.342       .  S
Zr526       O538   2.340       .  S
C529       C1850   1.493       .  S
C530       C1457   1.476       .  S
C531       C1049   1.491       .  S
C532       C2042   1.473       .  S
C533        C953   1.489       .  S
C534       C2018   1.483       .  S
C535       C1274   1.491       .  S
C536        C866   1.483       .  S
H537        O538   0.965   1_545  S
H539        O540   0.966       .  S
C541        C542   1.406       .  A
C541        C546   1.401       .  A
C541        H551   1.083       .  S
C542        C547   1.492       .  S
C542        C543   1.410       .  A
C543        C544   1.404       .  A
C543        O548   1.371       .  S
C544        C545   1.404       .  A
C544        H549   1.084       .  S
C545        C546   1.411       .  A
C546        O550   1.372       .  S
C547        C552   1.408       .  A
C547        C556   1.408   1_655  A
O548        H564   0.992       .  S
O550        H561   0.992       .  S
C552        C553   1.397       .  A
C552        O557   1.373       .  S
C553        C554   1.407       .  A
C553        H558   1.083       .  S
C554        C555   1.412   1_655  A
C555        C556   1.408       .  A
C555        O559   1.372       .  S
C556        H560   1.083       .  S
O557        H562   0.992       .  S
O559        H563   0.992       .  S
C565        C566   1.399       .  A
C565        C570   1.396       .  A
C565        H575   1.084       .  S
C566        C571   1.479       .  S
C566        C567   1.406       .  A
C567        C568   1.404       .  A
C567        O572   1.372       .  S
C568        C569   1.411       .  A
C568        H573   1.083       .  S
C569        C570   1.417       .  A
C570        O574   1.372       .  S
C571        C576   1.408       .  A
C571        C580   1.403       .  A
O572        H588   0.992       .  S
O574        H585   0.992       .  S
C576        C577   1.399       .  A
C576        O581   1.372       .  S
C577        C578   1.402       .  A
C577        H582   1.084       .  S
C578        C579   1.408       .  A
C579        C580   1.401       .  A
C579        O583   1.372       .  S
C580        H584   1.083       .  S
O581        H586   0.992       .  S
O583        H587   0.992       .  S
C589        C590   1.400       .  A
C589        C594   1.391       .  A
C589        H599   1.084       .  S
C590        C595   1.477       .  S
C590        C591   1.408       .  A
C591        C592   1.401       .  A
C591        O596   1.371       .  S
C592        C593   1.406       .  A
C592        H597   1.083       .  S
C593        C594   1.411       .  A
C594        O598   1.370       .  S
C595        C600   1.407       .  A
C595        C604   1.403       .  A
O596        H612   0.992       .  S
O598        H609   0.991       .  S
C600        C601   1.391       .  A
C600        O605   1.372       .  S
C601        C602   1.405       .  A
C601        H606   1.083       .  S
C602        C603   1.414       .  A
C603        C604   1.403       .  A
C603        O607   1.371       .  S
C604        H608   1.084       .  S
O605        H610   0.991       .  S
O607        H611   0.992       .  S
C613        C614   1.401       .  A
C613        C618   1.400       .  A
C613        H623   1.084       .  S
C614        C619   1.476       .  S
C614        C615   1.406       .  A
C615        C616   1.398       .  A
C615        O620   1.373       .  S
C616        C617   1.406       .  A
C616        H621   1.084       .  S
C617        C618   1.410       .  A
C618        O622   1.371       .  S
C619        C624   1.406       .  A
C619        C628   1.401       .  A
O620        H636   0.992       .  S
O622        H633   0.992       .  S
C624        C625   1.396       .  A
C624        O629   1.372       .  S
C625        C626   1.406       .  A
C625        H630   1.084       .  S
C626        C627   1.413       .  A
C627        C628   1.401       .  A
C627        O631   1.372       .  S
C628        H632   1.084       .  S
O629        H634   0.992       .  S
O631        H635   0.992       .  S
C637        C638   1.405   1_655  A
C637        C642   1.403       .  A
C637        H647   1.084       .  S
C638        C643   1.485       .  S
C638        C639   1.407       .  A
C639        C640   1.400       .  A
C639        O644   1.373       .  S
C640        C641   1.405   1_455  A
C640        H645   1.084       .  S
C641        C642   1.410       .  A
C642        O646   1.371       .  S
C643        C648   1.408       .  A
C643        C652   1.401       .  A
O644        H660   0.992       .  S
O646        H657   0.992       .  S
C648        C649   1.401       .  A
C648        O653   1.372       .  S
C649        C650   1.409       .  A
C649        H654   1.083       .  S
C650        C651   1.416       .  A
C651        C652   1.402       .  A
C651        O655   1.371       .  S
C652        H656   1.084       .  S
O653        H658   0.992       .  S
O655        H659   0.992       .  S
C661        C662   1.404       .  A
C661        C666   1.404       .  A
C661        H671   1.083       .  S
C662        C667   1.481       .  S
C662        C663   1.406       .  A
C663        C664   1.397       .  A
C663        O668   1.372       .  S
C664        C665   1.404       .  A
C664        H669   1.084       .  S
C665        C666   1.410       .  A
C666        O670   1.371       .  S
C667        C672   1.406       .  A
C667        C676   1.401       .  A
O668        H684   0.992       .  S
O670        H681   0.992       .  S
C672        C673   1.402       .  A
C672        O677   1.372   1_554  S
C673        C674   1.411       .  A
C673        H678   1.083       .  S
C674        C675   1.415       .  A
C675        C676   1.397       .  A
C675        O679   1.372       .  S
C676        H680   1.084       .  S
O677        H682   0.992       .  S
O679        H683   0.992       .  S
C685        C686   1.405       .  A
C685        C690   1.403       .  A
C685        H695   1.083       .  S
C686        C691   1.482       .  S
C686        C687   1.407       .  A
C687        C688   1.397       .  A
C687        O692   1.374       .  S
C688        C689   1.407       .  A
C688        H693   1.083       .  S
C689        C690   1.411       .  A
C690        O694   1.371       .  S
C691        C696   1.409       .  A
C691        C700   1.403       .  A
O692        H708   0.992       .  S
O694        H705   0.992       .  S
C696        C697   1.393       .  A
C696        O701   1.371   1_554  S
C697        C698   1.404       .  A
C697        H702   1.083       .  S
C698        C699   1.414       .  A
C699        C700   1.402       .  A
C699        O703   1.371       .  S
C700        H704   1.084       .  S
O701        H706   0.992       .  S
O703        H707   0.992       .  S
C709        C710   1.400       .  A
C709        C714   1.393       .  A
C709        H719   1.084       .  S
C710        C715   1.479       .  S
C710        C711   1.408       .  A
C711        C712   1.402       .  A
C711        O716   1.372       .  S
C712        C713   1.407       .  A
C712        H717   1.083       .  S
C713        C714   1.415       .  A
C714        O718   1.372       .  S
C715        C720   1.408       .  A
C715        C724   1.402       .  A
O716        H732   0.992       .  S
O718        H729   0.992       .  S
C720        C721   1.395       .  A
C720        O725   1.372       .  S
C721        C722   1.405       .  A
C721        H726   1.084       .  S
C722        C723   1.413       .  A
C723        C724   1.400       .  A
C723        O727   1.371       .  S
C724        H728   1.083       .  S
O725        H730   0.992       .  S
O727        H731   0.992       .  S
C733        C734   1.405       .  A
C733        C738   1.403       .  A
C733        H743   1.083       .  S
C734        C739   1.489       .  S
C734        C735   1.410       .  A
C735        C736   1.396       .  A
C735        O740   1.373       .  S
C736        C737   1.408       .  A
C736        H741   1.083       .  S
C737        C738   1.413       .  A
C738        O742   1.371       .  S
C739        C744   1.411       .  A
C739        C748   1.403       .  A
O740        H756   0.992       .  S
O742        H753   0.992       .  S
C744        C745   1.403   1_655  A
C744        O749   1.371       .  S
C745        C746   1.405       .  A
C745        H750   1.083       .  S
C746        C747   1.413       .  A
C747        C748   1.397   1_455  A
C747        O751   1.372       .  S
C748        H752   1.084       .  S
O749        H754   0.991       .  S
O751        H755   0.992       .  S
C757        C758   1.401       .  A
C757        C762   1.403       .  A
C757        H767   1.084       .  S
C758        C763   1.483       .  S
C758        C759   1.407       .  A
C759        C760   1.400       .  A
C759        O764   1.373       .  S
C760        C761   1.408       .  A
C760        H765   1.083       .  S
C761        C762   1.416       .  A
C762        O766   1.370       .  S
C763        C768   1.405       .  A
C763        C772   1.406       .  A
O764        H780   0.992       .  S
O766        H777   0.992       .  S
C768        C769   1.399       .  A
C768        O773   1.373       .  S
C769        C770   1.406       .  A
C769        H774   1.084       .  S
C770        C771   1.409       .  A
C771        C772   1.406       .  A
C771        O775   1.371       .  S
C772        H776   1.084       .  S
O773        H778   0.992       .  S
O775        H779   0.992       .  S
C781        C782   1.404       .  A
C781        C786   1.400       .  A
C781        H791   1.084       .  S
C782        C787   1.487       .  S
C782        C783   1.408       .  A
C783        C784   1.405       .  A
C783        O788   1.371       .  S
C784        C785   1.409       .  A
C784        H789   1.084       .  S
C785        C786   1.410       .  A
C786        O790   1.372       .  S
C787        C792   1.405       .  A
C787        C796   1.406       .  A
O788        H804   0.992       .  S
O790        H801   0.992       .  S
C792        C793   1.398       .  A
C792        O797   1.373       .  S
C793        C794   1.408       .  A
C793        H798   1.083       .  S
C794        C795   1.414       .  A
C795        C796   1.409       .  A
C795        O799   1.371       .  S
C796        H800   1.083       .  S
O797        H802   0.992       .  S
O799        H803   0.992       .  S
C805        C806   1.401       .  A
C805        C810   1.394       .  A
C805        H815   1.083       .  S
C806        C811   1.487       .  S
C806        C807   1.412       .  A
C807        C808   1.406       .  A
C807        O812   1.372       .  S
C808        C809   1.405       .  A
C808        H813   1.083       .  S
C809        C810   1.412       .  A
C810        O814   1.372       .  S
C811        C816   1.410       .  A
C811        C820   1.404       .  A
O812        H828   0.992       .  S
O814        H825   0.992       .  S
C816        C817   1.399       .  A
C816        O821   1.373       .  S
C817        C818   1.406       .  A
C817        H822   1.084       .  S
C818        C819   1.410       .  A
C819        C820   1.402       .  A
C819        O823   1.369       .  S
C820        H824   1.083       .  S
O821        H826   0.992       .  S
O823        H827   0.992       .  S
C829        C830   1.400       .  A
C829        C834   1.402       .  A
C829        H839   1.084       .  S
C830        C835   1.478       .  S
C830        C831   1.406       .  A
C831        C832   1.400       .  A
C831        O836   1.372       .  S
C832        C833   1.407       .  A
C832        H837   1.083       .  S
C833        C834   1.414       .  A
C834        O838   1.371       .  S
C835        C840   1.405       .  A
C835        C844   1.403       .  A
O836        H852   0.992       .  S
O838        H849   0.992       .  S
C840        C841   1.399       .  A
C840        O845   1.372       .  S
C841        C842   1.405       .  A
C841        H846   1.084       .  S
C842        C843   1.411       .  A
C843        C844   1.403       .  A
C843        O847   1.372       .  S
C844        H848   1.084       .  S
O845        H850   0.991       .  S
O847        H851   0.992       .  S
C853        C854   1.400       .  A
C853        C858   1.397       .  A
C853        H863   1.084       .  S
C854        C859   1.480       .  S
C854        C855   1.408       .  A
C855        C856   1.404       .  A
C855        O860   1.371       .  S
C856        C857   1.406       .  A
C856        H861   1.083       .  S
C857        C858   1.413       .  A
C858        O862   1.372       .  S
C859        C864   1.406       .  A
C859        C868   1.403       .  A
O860        H876   0.992       .  S
O862        H873   0.992       .  S
C864        C865   1.397       .  A
C864        O869   1.372       .  S
C865        C866   1.406       .  A
C865        H870   1.083       .  S
C866        C867   1.413       .  A
C867        C868   1.402       .  A
C867        O871   1.372       .  S
C868        H872   1.084       .  S
O869        H874   0.992       .  S
O871        H875   0.992   1_565  S
C877        C878   1.405       .  A
C877        C882   1.404       .  A
C877        H887   1.083       .  S
C878        C883   1.481       .  S
C878        C879   1.405       .  A
C879        C880   1.395   1_545  A
C879        O884   1.372       .  S
C880        C881   1.407       .  A
C880        H885   1.084       .  S
C881        C882   1.411   1_565  A
C882        O886   1.371       .  S
C883        C888   1.406       .  A
C883        C892   1.404       .  A
O884        H900   0.992   1_545  S
O886        H897   0.992   1_545  S
C888        C889   1.400       .  A
C888        O893   1.371       .  S
C889        C890   1.408       .  A
C889        H894   1.084       .  S
C890        C891   1.411       .  A
C891        C892   1.398       .  A
C891        O895   1.372       .  S
C892        H896   1.084       .  S
O893        H898   0.992       .  S
O895        H899   0.992       .  S
C901        C902   1.405       .  A
C901        C906   1.403       .  A
C901        H911   1.083       .  S
C902        C907   1.483       .  S
C902        C903   1.409       .  A
C903        C904   1.394       .  A
C903        O908   1.372       .  S
C904        C905   1.405       .  A
C904        H909   1.084       .  S
C905        C906   1.410       .  A
C906        O910   1.371       .  S
C907        C912   1.409       .  A
C907        C916   1.403       .  A
O908        H924   0.992   1_565  S
O910        H921   0.992       .  S
C912        C913   1.401       .  A
C912        O917   1.371       .  S
C913        C914   1.406       .  A
C913        H918   1.084       .  S
C914        C915   1.411       .  A
C915        C916   1.395       .  A
C915        O919   1.373       .  S
C916        H920   1.084       .  S
O917        H922   0.991       .  S
O919        H923   0.992       .  S
C925        C926   1.402       .  A
C925        C930   1.397       .  A
C925        H935   1.084       .  S
C926        C931   1.480       .  S
C926        C927   1.407       .  A
C927        C928   1.403       .  A
C927        O932   1.372       .  S
C928        C929   1.407       .  A
C928        H933   1.083       .  S
C929        C930   1.411       .  A
C930        O934   1.372       .  S
C931        C936   1.408       .  A
C931        C940   1.400       .  A
O932        H948   0.992       .  S
O934        H945   0.992       .  S
C936        C937   1.404       .  A
C936        O941   1.372       .  S
C937        C938   1.408       .  A
C937        H942   1.083       .  S
C938        C939   1.412       .  A
C939        C940   1.395       .  A
C939        O943   1.371       .  S
C940        H944   1.084       .  S
O941        H946   0.992       .  S
O943        H947   0.992       .  S
C949        C950   1.405   1_545  A
C949        C954   1.404       .  A
C949        H959   1.083       .  S
C950        C955   1.485   1_565  S
C950        C951   1.407       .  A
C951        C952   1.392       .  A
C951        O956   1.372       .  S
C952        C953   1.407   1_455  A
C952        H957   1.083       .  S
C953        C954   1.415   1_665  A
C954        O958   1.371       .  S
C955        C960   1.410       .  A
C955        C964   1.404   1_545  A
O956        H972   0.992       .  S
O958        H969   0.992       .  S
C960        C961   1.402       .  A
C960        O965   1.372       .  S
C961        C962   1.404       .  A
C961        H966   1.084       .  S
C962        C963   1.407   1_545  A
C963        C964   1.398       .  A
C963        O967   1.372       .  S
C964        H968   1.084       .  S
O965        H970   0.992       .  S
O967        H971   0.992       .  S
C973        C974   1.401       .  A
C973        C978   1.395       .  A
C973        H983   1.084       .  S
C974        C979   1.481       .  S
C974        C975   1.409       .  A
C975        C976   1.406       .  A
C975        O980   1.372       .  S
C976        C977   1.405       .  A
C976        H981   1.083       .  S
C977        C978   1.408       .  A
C978        O982   1.372       .  S
C979        C984   1.408       .  A
C979        C988   1.401       .  A
O980        H996   0.991       .  S
O982        H993   0.992       .  S
C984        C985   1.402       .  A
C984        O989   1.371       .  S
C985        C986   1.409       .  A
C985        H990   1.083       .  S
C986        C987   1.415       .  A
C987        C988   1.396       .  A
C987        O991   1.372       .  S
C988        H992   1.084       .  S
O989        H994   0.992       .  S
O991        H995   0.992       .  S
C997        C998   1.403       .  A
C997       C1002   1.405       .  A
C997       H1007   1.083       .  S
C998       C1003   1.486       .  S
C998        C999   1.409       .  A
C999       C1000   1.402       .  A
C999       O1004   1.374       .  S
C1000      C1001   1.405       .  A
C1000      H1005   1.084       .  S
C1001      C1002   1.412       .  A
C1002      O1006   1.371       .  S
C1003      C1008   1.405       .  A
C1003      C1012   1.406       .  A
O1004      H1020   0.992       .  S
O1006      H1017   0.992       .  S
C1008      C1009   1.396       .  A
C1008      O1013   1.373       .  S
C1009      C1010   1.406       .  A
C1009      H1014   1.083       .  S
C1010      C1011   1.414       .  A
C1011      C1012   1.409       .  A
C1011      O1015   1.372       .  S
C1012      H1016   1.083       .  S
O1013      H1018   0.992       .  S
O1015      H1019   0.992       .  S
C1021      C1022   1.403       .  A
C1021      C1026   1.403       .  A
C1021      H1031   1.084       .  S
C1022      C1027   1.479       .  S
C1022      C1023   1.405       .  A
C1023      C1024   1.398       .  A
C1023      O1028   1.373       .  S
C1024      C1025   1.407       .  A
C1024      H1029   1.083       .  S
C1025      C1026   1.413       .  A
C1026      O1030   1.371       .  S
C1027      C1032   1.408   1_565  A
C1027      C1036   1.400       .  A
O1028      H1044   0.992       .  S
O1030      H1041   0.992       .  S
C1032      C1033   1.400       .  A
C1032      O1037   1.372       .  S
C1033      C1034   1.407       .  A
C1033      H1038   1.084       .  S
C1034      C1035   1.413       .  A
C1035      C1036   1.399   1_545  A
C1035      O1039   1.372       .  S
C1036      H1040   1.084       .  S
O1037      H1042   0.992       .  S
O1039      H1043   0.992       .  S
C1045      C1046   1.403       .  A
C1045      C1050   1.405       .  A
C1045      H1055   1.084       .  S
C1046      C1051   1.484       .  S
C1046      C1047   1.406       .  A
C1047      C1048   1.397       .  A
C1047      O1052   1.371       .  S
C1048      C1049   1.406       .  A
C1048      H1053   1.083       .  S
C1049      C1050   1.418       .  A
C1050      O1054   1.372       .  S
C1051      C1056   1.407       .  A
C1051      C1060   1.403       .  A
O1052      H1068   0.992       .  S
O1054      H1065   0.992       .  S
C1056      C1057   1.404       .  A
C1056      O1061   1.371       .  S
C1057      C1058   1.406       .  A
C1057      H1062   1.083       .  S
C1058      C1059   1.412       .  A
C1059      C1060   1.400       .  A
C1059      O1063   1.373       .  S
C1060      H1064   1.084       .  S
O1061      H1066   0.991       .  S
O1063      H1067   0.992       .  S
C1069      C1070   1.401       .  A
C1069      C1074   1.398       .  A
C1069      H1079   1.084       .  S
C1070      C1075   1.479       .  S
C1070      C1071   1.405       .  A
C1071      C1072   1.401       .  A
C1071      O1076   1.371       .  S
C1072      C1073   1.407       .  A
C1072      H1077   1.083       .  S
C1073      C1074   1.415       .  A
C1074      O1078   1.371       .  S
C1075      C1080   1.405       .  A
C1075      C1084   1.404       .  A
O1076      H1092   0.992       .  S
O1078      H1089   0.992       .  S
C1080      C1081   1.396       .  A
C1080      O1085   1.372       .  S
C1081      C1082   1.405       .  A
C1081      H1086   1.084       .  S
C1082      C1083   1.411       .  A
C1083      C1084   1.404       .  A
C1083      O1087   1.372       .  S
C1084      H1088   1.084       .  S
O1085      H1090   0.992       .  S
O1087      H1091   0.992       .  S
C1093      C1094   1.407       .  A
C1093      C1098   1.409       .  A
C1093      H1103   1.083       .  S
C1094      C1099   1.485       .  S
C1094      C1095   1.405       .  A
C1095      C1096   1.394       .  A
C1095      O1100   1.372       .  S
C1096      C1097   1.408       .  A
C1096      H1101   1.083       .  S
C1097      C1098   1.413       .  A
C1098      O1102   1.371       .  S
C1099      C1104   1.407       .  A
C1099      C1108   1.406       .  A
O1100      H1116   0.992       .  S
O1102      H1113   0.992       .  S
C1104      C1105   1.403       .  A
C1104      O1109   1.371       .  S
C1105      C1106   1.407       .  A
C1105      H1110   1.084       .  S
C1106      C1107   1.407       .  A
C1107      C1108   1.400       .  A
C1107      O1111   1.372       .  S
C1108      H1112   1.084       .  S
O1109      H1114   0.992       .  S
O1111      H1115   0.992       .  S
C1117      C1118   1.403   1_565  A
C1117      C1122   1.395       .  A
C1117      H1127   1.084       .  S
C1118      C1123   1.482       .  S
C1118      C1119   1.407       .  A
C1119      C1120   1.403       .  A
C1119      O1124   1.372       .  S
C1120      C1121   1.410   1_545  A
C1120      H1125   1.083       .  S
C1121      C1122   1.408       .  A
C1122      O1126   1.370       .  S
C1123      C1128   1.407       .  A
C1123      C1132   1.404       .  A
O1124      H1140   0.992       .  S
O1126      H1137   0.992       .  S
C1128      C1129   1.394       .  A
C1128      O1133   1.372   1_545  S
C1129      C1130   1.404       .  A
C1129      H1134   1.083       .  S
C1130      C1131   1.414       .  A
C1131      C1132   1.404       .  A
C1131      O1135   1.371       .  S
C1132      H1136   1.083       .  S
O1133      H1138   0.992   1_565  S
O1135      H1139   0.992       .  S
C1141      C1142   1.402       .  A
C1141      C1146   1.400       .  A
C1141      H1151   1.084       .  S
C1142      C1147   1.485       .  S
C1142      C1143   1.407       .  A
C1143      C1144   1.404       .  A
C1143      O1148   1.372       .  S
C1144      C1145   1.407       .  A
C1144      H1149   1.083       .  S
C1145      C1146   1.414       .  A
C1146      O1150   1.372       .  S
C1147      C1152   1.408       .  A
C1147      C1156   1.401       .  A
O1148      H1164   0.992       .  S
O1150      H1161   0.992       .  S
C1152      C1153   1.404       .  A
C1152      O1157   1.371       .  S
C1153      C1154   1.407       .  A
C1153      H1158   1.083       .  S
C1154      C1155   1.414       .  A
C1155      C1156   1.400       .  A
C1155      O1159   1.369       .  S
C1156      H1160   1.084       .  S
O1157      H1162   0.992       .  S
O1159      H1163   0.992       .  S
C1165      C1166   1.402       .  A
C1165      C1170   1.403       .  A
C1165      H1175   1.084       .  S
C1166      C1171   1.482       .  S
C1166      C1167   1.408       .  A
C1167      C1168   1.399       .  A
C1167      O1172   1.373       .  S
C1168      C1169   1.404       .  A
C1168      H1173   1.084       .  S
C1169      C1170   1.414       .  A
C1170      O1174   1.372       .  S
C1171      C1176   1.406       .  A
C1171      C1180   1.404       .  A
O1172      H1188   0.992       .  S
O1174      H1185   0.992       .  S
C1176      C1177   1.395       .  A
C1176      O1181   1.372       .  S
C1177      C1178   1.407       .  A
C1177      H1182   1.084       .  S
C1178      C1179   1.413       .  A
C1179      C1180   1.405       .  A
C1179      O1183   1.371       .  S
C1180      H1184   1.083       .  S
O1181      H1186   0.992       .  S
O1183      H1187   0.992       .  S
C1189      C1190   1.400       .  A
C1189      C1194   1.395       .  A
C1189      H1199   1.084       .  S
C1190      C1195   1.470       .  S
C1190      C1191   1.404       .  A
C1191      C1192   1.398   1_655  A
C1191      O1196   1.372       .  S
C1192      C1193   1.407       .  A
C1192      H1197   1.084       .  S
C1193      C1194   1.411   1_455  A
C1194      O1198   1.372       .  S
C1195      C1200   1.404       .  A
C1195      C1204   1.400       .  A
O1196      H1212   0.992       .  S
O1198      H1209   0.992   1_655  S
C1200      C1201   1.395       .  A
C1200      O1205   1.372       .  S
C1201      C1202   1.405       .  A
C1201      H1206   1.084       .  S
C1202      C1203   1.413       .  A
C1203      C1204   1.400       .  A
C1203      O1207   1.371       .  S
C1204      H1208   1.084       .  S
O1205      H1210   0.992       .  S
O1207      H1211   0.992       .  S
C1213      C1214   1.402       .  A
C1213      C1218   1.399       .  A
C1213      H1223   1.084       .  S
C1214      C1219   1.486       .  S
C1214      C1215   1.408       .  A
C1215      C1216   1.404       .  A
C1215      O1220   1.372       .  S
C1216      C1217   1.407       .  A
C1216      H1221   1.083       .  S
C1217      C1218   1.415       .  A
C1218      O1222   1.372       .  S
C1219      C1224   1.408       .  A
C1219      C1228   1.404       .  A
O1220      H1236   0.992       .  S
O1222      H1233   0.992       .  S
C1224      C1225   1.404       .  A
C1224      O1229   1.371       .  S
C1225      C1226   1.408       .  A
C1225      H1230   1.083       .  S
C1226      C1227   1.413       .  A
C1227      C1228   1.399       .  A
C1227      O1231   1.372       .  S
C1228      H1232   1.084       .  S
O1229      H1234   0.992       .  S
O1231      H1235   0.992       .  S
C1237      C1238   1.404       .  A
C1237      C1242   1.399       .  A
C1237      H1247   1.083       .  S
C1238      C1243   1.484       .  S
C1238      C1239   1.407       .  A
C1239      C1240   1.400       .  A
C1239      O1244   1.372       .  S
C1240      C1241   1.408       .  A
C1240      H1245   1.083       .  S
C1241      C1242   1.411       .  A
C1242      O1246   1.372       .  S
C1243      C1248   1.406       .  A
C1243      C1252   1.404       .  A
O1244      H1260   0.992       .  S
O1246      H1257   0.992       .  S
C1248      C1249   1.397       .  A
C1248      O1253   1.373       .  S
C1249      C1250   1.407       .  A
C1249      H1254   1.083       .  S
C1250      C1251   1.414       .  A
C1251      C1252   1.404       .  A
C1251      O1255   1.371       .  S
C1252      H1256   1.083       .  S
O1253      H1258   0.992       .  S
O1255      H1259   0.992       .  S
C1261      C1262   1.402   1_455  A
C1261      C1266   1.397       .  A
C1261      H1271   1.083       .  S
C1262      C1267   1.495       .  S
C1262      C1263   1.413       .  A
C1263      C1264   1.408       .  A
C1263      O1268   1.371       .  S
C1264      C1265   1.406   1_655  A
C1264      H1269   1.083       .  S
C1265      C1266   1.415       .  A
C1266      O1270   1.373       .  S
C1267      C1272   1.411       .  A
C1267      C1276   1.406       .  A
O1268      H1284   0.992       .  S
O1270      H1281   0.992       .  S
C1272      C1273   1.402       .  A
C1272      O1277   1.373   1_655  S
C1273      C1274   1.405       .  A
C1273      H1278   1.084       .  S
C1274      C1275   1.413       .  A
C1275      C1276   1.407       .  A
C1275      O1279   1.372       .  S
C1276      H1280   1.083       .  S
O1277      H1282   0.992       .  S
O1279      H1283   0.992       .  S
C1285      C1286   1.403       .  A
C1285      C1290   1.394       .  A
C1285      H1295   1.083       .  S
C1286      C1291   1.484       .  S
C1286      C1287   1.412       .  A
C1287      C1288   1.402       .  A
C1287      O1292   1.372       .  S
C1288      C1289   1.403       .  A
C1288      H1293   1.084       .  S
C1289      C1290   1.407       .  A
C1290      O1294   1.372       .  S
C1291      C1296   1.409       .  A
C1291      C1300   1.402       .  A
O1292      H1308   0.992       .  S
O1294      H1305   0.992       .  S
C1296      C1297   1.397       .  A
C1296      O1301   1.373       .  S
C1297      C1298   1.407       .  A
C1297      H1302   1.083       .  S
C1298      C1299   1.416       .  A
C1299      C1300   1.400       .  A
C1299      O1303   1.371       .  S
C1300      H1304   1.083       .  S
O1301      H1306   0.992       .  S
O1303      H1307   0.992       .  S
C1309      C1310   1.403       .  A
C1309      C1314   1.406       .  A
C1309      H1319   1.083       .  S
C1310      C1315   1.482       .  S
C1310      C1311   1.405       .  A
C1311      C1312   1.397       .  A
C1311      O1316   1.372       .  S
C1312      C1313   1.407       .  A
C1312      H1317   1.083       .  S
C1313      C1314   1.415       .  A
C1314      O1318   1.372       .  S
C1315      C1320   1.409       .  A
C1315      C1324   1.400       .  A
O1316      H1332   0.992       .  S
O1318      H1329   0.992   1_554  S
C1320      C1321   1.403       .  A
C1320      O1325   1.372       .  S
C1321      C1322   1.405       .  A
C1321      H1326   1.083       .  S
C1322      C1323   1.414       .  A
C1323      C1324   1.403       .  A
C1323      O1327   1.372       .  S
C1324      H1328   1.084       .  S
O1325      H1330   0.992       .  S
O1327      H1331   0.992       .  S
C1333      C1334   1.403       .  A
C1333      C1338   1.404       .  A
C1333      H1343   1.083       .  S
C1334      C1339   1.487       .  S
C1334      C1335   1.410       .  A
C1335      C1336   1.396       .  A
C1335      O1340   1.372       .  S
C1336      C1337   1.405       .  A
C1336      H1341   1.083       .  S
C1337      C1338   1.417       .  A
C1338      O1342   1.372       .  S
C1339      C1344   1.410       .  A
C1339      C1348   1.401       .  A
O1340      H1356   0.992       .  S
O1342      H1353   0.992       .  S
C1344      C1345   1.408       .  A
C1344      O1349   1.372       .  S
C1345      C1346   1.407       .  A
C1345      H1350   1.083       .  S
C1346      C1347   1.412       .  A
C1347      C1348   1.397       .  A
C1347      O1351   1.372       .  S
C1348      H1352   1.084       .  S
O1349      H1354   0.991       .  S
O1351      H1355   0.992       .  S
C1357      C1358   1.398       .  A
C1357      C1362   1.393       .  A
C1357      H1367   1.084       .  S
C1358      C1363   1.484       .  S
C1358      C1359   1.411       .  A
C1359      C1360   1.410   1_545  A
C1359      O1364   1.371       .  S
C1360      C1361   1.409       .  A
C1360      H1365   1.083       .  S
C1361      C1362   1.413   1_565  A
C1362      O1366   1.369       .  S
C1363      C1368   1.409       .  A
C1363      C1372   1.403       .  A
O1364      H1380   0.992   1_545  S
O1366      H1377   0.992       .  S
C1368      C1369   1.397       .  A
C1368      O1373   1.372       .  S
C1369      C1370   1.404       .  A
C1369      H1374   1.084       .  S
C1370      C1371   1.414       .  A
C1371      C1372   1.405       .  A
C1371      O1375   1.372       .  S
C1372      H1376   1.083       .  S
O1373      H1378   0.992       .  S
O1375      H1379   0.992       .  S
C1381      C1382   1.399       .  A
C1381      C1386   1.393       .  A
C1381      H1391   1.084   1_554  S
C1382      C1387   1.473       .  S
C1382      C1383   1.405       .  A
C1383      C1384   1.402       .  A
C1383      O1388   1.371       .  S
C1384      C1385   1.408       .  A
C1384      H1389   1.084       .  S
C1385      C1386   1.410       .  A
C1386      O1390   1.369   1_554  S
C1387      C1392   1.407       .  A
C1387      C1396   1.397       .  A
O1388      H1404   0.992       .  S
O1390      H1401   0.992       .  S
C1392      C1393   1.404       .  A
C1392      O1397   1.371       .  S
C1393      C1394   1.407       .  A
C1393      H1398   1.083       .  S
C1394      C1395   1.411       .  A
C1395      C1396   1.393       .  A
C1395      O1399   1.371   1_565  S
C1396      H1400   1.084       .  S
O1397      H1402   0.992       .  S
O1399      H1403   0.992   1_554  S
C1405      C1406   1.400       .  A
C1405      C1410   1.397       .  A
C1405      H1415   1.084       .  S
C1406      C1411   1.485       .  S
C1406      C1407   1.410       .  A
C1407      C1408   1.407       .  A
C1407      O1412   1.371       .  S
C1408      C1409   1.406       .  A
C1408      H1413   1.083       .  S
C1409      C1410   1.414       .  A
C1410      O1414   1.373       .  S
C1411      C1416   1.409       .  A
C1411      C1420   1.402       .  A
O1412      H1428   0.992       .  S
O1414      H1425   0.992       .  S
C1416      C1417   1.400       .  A
C1416      O1421   1.372       .  S
C1417      C1418   1.405       .  A
C1417      H1422   1.084       .  S
C1418      C1419   1.414       .  A
C1419      C1420   1.404       .  A
C1419      O1423   1.372       .  S
C1420      H1424   1.083       .  S
O1421      H1426   0.992       .  S
O1423      H1427   0.992       .  S
C1429      C1430   1.406       .  A
C1429      C1434   1.402       .  A
C1429      H1439   1.083       .  S
C1430      C1435   1.480       .  S
C1430      C1431   1.407       .  A
C1431      C1432   1.391       .  A
C1431      O1436   1.372       .  S
C1432      C1433   1.403       .  A
C1432      H1437   1.084       .  S
C1433      C1434   1.409       .  A
C1434      O1438   1.371       .  S
C1435      C1440   1.406       .  A
C1435      C1444   1.403       .  A
O1436      H1452   0.992       .  S
O1438      H1449   0.992       .  S
C1440      C1441   1.398       .  A
C1440      O1445   1.371       .  S
C1441      C1442   1.407       .  A
C1441      H1446   1.083       .  S
C1442      C1443   1.413       .  A
C1443      C1444   1.396       .  A
C1443      O1447   1.372       .  S
C1444      H1448   1.084       .  S
O1445      H1450   0.992       .  S
O1447      H1451   0.992       .  S
C1453      C1454   1.401       .  A
C1453      C1458   1.392       .  A
C1453      H1463   1.084       .  S
C1454      C1459   1.474       .  S
C1454      C1455   1.405       .  A
C1455      C1456   1.400       .  A
C1455      O1460   1.371       .  S
C1456      C1457   1.408       .  A
C1456      H1461   1.084       .  S
C1457      C1458   1.410       .  A
C1458      O1462   1.372       .  S
C1459      C1464   1.405       .  A
C1459      C1468   1.402       .  A
O1460      H1476   0.992       .  S
O1462      H1473   0.992       .  S
C1464      C1465   1.394       .  A
C1464      O1469   1.373       .  S
C1465      C1466   1.404       .  A
C1465      H1470   1.083       .  S
C1466      C1467   1.414       .  A
C1467      C1468   1.402       .  A
C1467      O1471   1.372       .  S
C1468      H1472   1.084       .  S
O1469      H1474   0.992       .  S
O1471      H1475   0.992       .  S
C1477      C1478   1.400       .  A
C1477      C1482   1.399       .  A
C1477      H1487   1.084       .  S
C1478      C1483   1.488       .  S
C1478      C1479   1.409       .  A
C1479      C1480   1.408       .  A
C1479      O1484   1.371       .  S
C1480      C1481   1.410       .  A
C1480      H1485   1.083       .  S
C1481      C1482   1.416       .  A
C1482      O1486   1.371       .  S
C1483      C1488   1.409       .  A
C1483      C1492   1.403       .  A
O1484      H1500   0.992       .  S
O1486      H1497   0.992       .  S
C1488      C1489   1.407       .  A
C1488      O1493   1.371       .  S
C1489      C1490   1.409       .  A
C1489      H1494   1.084       .  S
C1490      C1491   1.411       .  A
C1491      C1492   1.402       .  A
C1491      O1495   1.372       .  S
C1492      H1496   1.084       .  S
O1493      H1498   0.992       .  S
O1495      H1499   0.992       .  S
C1501      C1502   1.403       .  A
C1501      C1506   1.405       .  A
C1501      H1511   1.084       .  S
C1502      C1507   1.482       .  S
C1502      C1503   1.405       .  A
C1503      C1504   1.397       .  A
C1503      O1508   1.373       .  S
C1504      C1505   1.407       .  A
C1504      H1509   1.083       .  S
C1505      C1506   1.417       .  A
C1506      O1510   1.371       .  S
C1507      C1512   1.409       .  A
C1507      C1516   1.404       .  A
O1508      H1524   0.992       .  S
O1510      H1521   0.992       .  S
C1512      C1513   1.396       .  A
C1512      O1517   1.372       .  S
C1513      C1514   1.402       .  A
C1513      H1518   1.084       .  S
C1514      C1515   1.410       .  A
C1515      C1516   1.402       .  A
C1515      O1519   1.372       .  S
C1516      H1520   1.084       .  S
O1517      H1522   0.992       .  S
O1519      H1523   0.992       .  S
C1525      C1526   1.402       .  A
C1525      C1530   1.397   1_655  A
C1525      H1535   1.083       .  S
C1526      C1531   1.486       .  S
C1526      C1527   1.408       .  A
C1527      C1528   1.405   1_655  A
C1527      O1532   1.372       .  S
C1528      C1529   1.411       .  A
C1528      H1533   1.083       .  S
C1529      C1530   1.416       .  A
C1530      O1534   1.372       .  S
C1531      C1536   1.410       .  A
C1531      C1540   1.405       .  A
O1532      H1548   0.992       .  S
O1534      H1545   0.992       .  S
C1536      C1537   1.400       .  A
C1536      O1541   1.373       .  S
C1537      C1538   1.402       .  A
C1537      H1542   1.084       .  S
C1538      C1539   1.409       .  A
C1539      C1540   1.402       .  A
C1539      O1543   1.372       .  S
C1540      H1544   1.083       .  S
O1541      H1546   0.992       .  S
O1543      H1547   0.992       .  S
C1549      C1550   1.405       .  A
C1549      C1554   1.402       .  A
C1549      H1559   1.083       .  S
C1550      C1555   1.485       .  S
C1550      C1551   1.411       .  A
C1551      C1552   1.393       .  A
C1551      O1556   1.372       .  S
C1552      C1553   1.402       .  A
C1552      H1557   1.084       .  S
C1553      C1554   1.414       .  A
C1554      O1558   1.372       .  S
C1555      C1560   1.412       .  A
C1555      C1564   1.406       .  A
O1556      H1572   0.992       .  S
O1558      H1569   0.992       .  S
C1560      C1561   1.400       .  A
C1560      O1565   1.371       .  S
C1561      C1562   1.400       .  A
C1561      H1566   1.084       .  S
C1562      C1563   1.403       .  A
C1563      C1564   1.396       .  A
C1563      O1567   1.372       .  S
C1564      H1568   1.083       .  S
O1565      H1570   0.992       .  S
O1567      H1571   0.991       .  S
C1573      C1574   1.403       .  A
C1573      C1578   1.406       .  A
C1573      H1583   1.083       .  S
C1574      C1579   1.482       .  S
C1574      C1575   1.405       .  A
C1575      C1576   1.397       .  A
C1575      O1580   1.372       .  S
C1576      C1577   1.405       .  A
C1576      H1581   1.083       .  S
C1577      C1578   1.415       .  A
C1578      O1582   1.372       .  S
C1579      C1584   1.407       .  A
C1579      C1588   1.403       .  A
O1580      H1596   0.992       .  S
O1582      H1593   0.992       .  S
C1584      C1585   1.405       .  A
C1584      O1589   1.372       .  S
C1585      C1586   1.409       .  A
C1585      H1590   1.084       .  S
C1586      C1587   1.408       .  A
C1587      C1588   1.399       .  A
C1587      O1591   1.372       .  S
C1588      H1592   1.084       .  S
O1589      H1594   0.992       .  S
O1591      H1595   0.992       .  S
C1597      C1598   1.402       .  A
C1597      C1602   1.394       .  A
C1597      H1607   1.084   1_565  S
C1598      C1603   1.478   1_565  S
C1598      C1599   1.409       .  A
C1599      C1600   1.403       .  A
C1599      O1604   1.372       .  S
C1600      C1601   1.404       .  A
C1600      H1605   1.084       .  S
C1601      C1602   1.406       .  A
C1602      O1606   1.372       .  S
C1603      C1608   1.407       .  A
C1603      C1612   1.400       .  A
O1604      H1620   0.992       .  S
O1606      H1617   0.992       .  S
C1608      C1609   1.400       .  A
C1608      O1613   1.372   1_545  S
C1609      C1610   1.409       .  A
C1609      H1614   1.083       .  S
C1610      C1611   1.416       .  A
C1611      C1612   1.394       .  A
C1611      O1615   1.372       .  S
C1612      H1616   1.084       .  S
O1613      H1618   0.992       .  S
O1615      H1619   0.992       .  S
C1621      C1622   1.405       .  A
C1621      C1626   1.403   1_655  A
C1621      H1631   1.083       .  S
C1622      C1627   1.491       .  S
C1622      C1623   1.411   1_655  A
C1623      C1624   1.400       .  A
C1623      O1628   1.372       .  S
C1624      C1625   1.407       .  A
C1624      H1629   1.084       .  S
C1625      C1626   1.410       .  A
C1626      O1630   1.371   1_455  S
C1627      C1632   1.410       .  A
C1627      C1636   1.402   1_655  A
O1628      H1644   0.992       .  S
O1630      H1641   0.992   1_655  S
C1632      C1633   1.405       .  A
C1632      O1637   1.372       .  S
C1633      C1634   1.407       .  A
C1633      H1638   1.083       .  S
C1634      C1635   1.417       .  A
C1635      C1636   1.398   1_655  A
C1635      O1639   1.371   1_655  S
C1636      H1640   1.084       .  S
O1637      H1642   0.992       .  S
O1639      H1643   0.992       .  S
C1645      C1646   1.401       .  A
C1645      C1650   1.401       .  A
C1645      H1655   1.084       .  S
C1646      C1651   1.472       .  S
C1646      C1647   1.405       .  A
C1647      C1648   1.393       .  A
C1647      O1652   1.372       .  S
C1648      C1649   1.402       .  A
C1648      H1653   1.084       .  S
C1649      C1650   1.414       .  A
C1650      O1654   1.372       .  S
C1651      C1656   1.406       .  A
C1651      C1660   1.399       .  A
O1652      H1668   0.992       .  S
O1654      H1665   0.992       .  S
C1656      C1657   1.401       .  A
C1656      O1661   1.371       .  S
C1657      C1658   1.405       .  A
C1657      H1662   1.083       .  S
C1658      C1659   1.412       .  A
C1659      C1660   1.395       .  A
C1659      O1663   1.373       .  S
C1660      H1664   1.084       .  S
O1661      H1666   0.992       .  S
O1663      H1667   0.992       .  S
C1669      C1670   1.401       .  A
C1669      C1674   1.397       .  A
C1669      H1679   1.084       .  S
C1670      C1675   1.484       .  S
C1670      C1671   1.410       .  A
C1671      C1672   1.405       .  A
C1671      O1676   1.371       .  S
C1672      C1673   1.405       .  A
C1672      H1677   1.083       .  S
C1673      C1674   1.413       .  A
C1674      O1678   1.373   1_455  S
C1675      C1680   1.409       .  A
C1675      C1684   1.403       .  A
O1676      H1692   0.992       .  S
O1678      H1689   0.992       .  S
C1680      C1681   1.399       .  A
C1680      O1685   1.373       .  S
C1681      C1682   1.405       .  A
C1681      H1686   1.084       .  S
C1682      C1683   1.412       .  A
C1683      C1684   1.403       .  A
C1683      O1687   1.371       .  S
C1684      H1688   1.083       .  S
O1685      H1690   0.992       .  S
O1687      H1691   0.992       .  S
C1693      C1694   1.401       .  A
C1693      C1698   1.403       .  A
C1693      H1703   1.083       .  S
C1694      C1699   1.488       .  S
C1694      C1695   1.410       .  A
C1695      C1696   1.404       .  A
C1695      O1700   1.372       .  S
C1696      C1697   1.408       .  A
C1696      H1701   1.083       .  S
C1697      C1698   1.416       .  A
C1698      O1702   1.371       .  S
C1699      C1704   1.410       .  A
C1699      C1708   1.402       .  A
O1700      H1716   0.992       .  S
O1702      H1713   0.992       .  S
C1704      C1705   1.405       .  A
C1704      O1709   1.371       .  S
C1705      C1706   1.404       .  A
C1705      H1710   1.083       .  S
C1706      C1707   1.414       .  A
C1707      C1708   1.400       .  A
C1707      O1711   1.373       .  S
C1708      H1712   1.084       .  S
O1709      H1714   0.992       .  S
O1711      H1715   0.992       .  S
C1717      C1718   1.399       .  A
C1717      C1722   1.397       .  A
C1717      H1727   1.083       .  S
C1718      C1723   1.475       .  S
C1718      C1719   1.408       .  A
C1719      C1720   1.395       .  A
C1719      O1724   1.372       .  S
C1720      C1721   1.406       .  A
C1720      H1725   1.084       .  S
C1721      C1722   1.415       .  A
C1722      O1726   1.372       .  S
C1723      C1728   1.411       .  A
C1723      C1732   1.400       .  A
O1724      H1740   0.992       .  S
O1726      H1737   0.992       .  S
C1728      C1729   1.402       .  A
C1728      O1733   1.372       .  S
C1729      C1730   1.401       .  A
C1729      H1734   1.084       .  S
C1730      C1731   1.406       .  A
C1731      C1732   1.392       .  A
C1731      O1735   1.373       .  S
C1732      H1736   1.084       .  S
O1733      H1738   0.992       .  S
O1735      H1739   0.992       .  S
C1741      C1742   1.404       .  A
C1741      C1746   1.397       .  A
C1741      H1751   1.084       .  S
C1742      C1747   1.483       .  S
C1742      C1743   1.407   1_545  A
C1743      C1744   1.404       .  A
C1743      O1748   1.372       .  S
C1744      C1745   1.410       .  A
C1744      H1749   1.084   1_455  S
C1745      C1746   1.410   1_565  A
C1746      O1750   1.372       .  S
C1747      C1752   1.409       .  A
C1747      C1756   1.402       .  A
O1748      H1764   0.992       .  S
O1750      H1761   0.992       .  S
C1752      C1753   1.404       .  A
C1752      O1757   1.371   1_545  S
C1753      C1754   1.408       .  A
C1753      H1758   1.083       .  S
C1754      C1755   1.414       .  A
C1755      C1756   1.397       .  A
C1755      O1759   1.372       .  S
C1756      H1760   1.084       .  S
O1757      H1762   0.992   1_565  S
O1759      H1763   0.992       .  S
C1765      C1766   1.403       .  A
C1765      C1770   1.400       .  A
C1765      H1775   1.084       .  S
C1766      C1771   1.484       .  S
C1766      C1767   1.406       .  A
C1767      C1768   1.402       .  A
C1767      O1772   1.372       .  S
C1768      C1769   1.410       .  A
C1768      H1773   1.083       .  S
C1769      C1770   1.416       .  A
C1770      O1774   1.372       .  S
C1771      C1776   1.408       .  A
C1771      C1780   1.405       .  A
O1772      H1788   0.992       .  S
O1774      H1785   0.992       .  S
C1776      C1777   1.398       .  A
C1776      O1781   1.372       .  S
C1777      C1778   1.403       .  A
C1777      H1782   1.084       .  S
C1778      C1779   1.410       .  A
C1779      C1780   1.402       .  A
C1779      O1783   1.372       .  S
C1780      H1784   1.083       .  S
O1781      H1786   0.992       .  S
O1783      H1787   0.992       .  S
C1789      C1790   1.402       .  A
C1789      C1794   1.397       .  A
C1789      H1799   1.084       .  S
C1790      C1795   1.481       .  S
C1790      C1791   1.409       .  A
C1791      C1792   1.401       .  A
C1791      O1796   1.372       .  S
C1792      C1793   1.405       .  A
C1792      H1797   1.084       .  S
C1793      C1794   1.409       .  A
C1794      O1798   1.372       .  S
C1795      C1800   1.408       .  A
C1795      C1804   1.401   1_565  A
O1796      H1812   0.992       .  S
O1798      H1809   0.992       .  S
C1800      C1801   1.398   1_565  A
C1800      O1805   1.373       .  S
C1801      C1802   1.406       .  A
C1801      H1806   1.083       .  S
C1802      C1803   1.415       .  A
C1803      C1804   1.400       .  A
C1803      O1807   1.372       .  S
C1804      H1808   1.083       .  S
O1805      H1810   0.992       .  S
O1807      H1811   0.992       .  S
C1813      C1814   1.405       .  A
C1813      C1818   1.400       .  A
C1813      H1823   1.083       .  S
C1814      C1819   1.492       .  S
C1814      C1815   1.410       .  A
C1815      C1816   1.406       .  A
C1815      O1820   1.372       .  S
C1816      C1817   1.410       .  A
C1816      H1821   1.083       .  S
C1817      C1818   1.411       .  A
C1818      O1822   1.372       .  S
C1819      C1824   1.409       .  A
C1819      C1828   1.408       .  A
O1820      H1836   0.992       .  S
O1822      H1833   0.992       .  S
C1824      C1825   1.397       .  A
C1824      O1829   1.373       .  S
C1825      C1826   1.405       .  A
C1825      H1830   1.084       .  S
C1826      C1827   1.412       .  A
C1827      C1828   1.408       .  A
C1827      O1831   1.372       .  S
C1828      H1832   1.083       .  S
O1829      H1834   0.992       .  S
O1831      H1835   0.992       .  S
C1837      C1838   1.407       .  A
C1837      C1842   1.404       .  A
C1837      H1847   1.083       .  S
C1838      C1843   1.486       .  S
C1838      C1839   1.409       .  A
C1839      C1840   1.397       .  A
C1839      O1844   1.371       .  S
C1840      C1841   1.402       .  A
C1840      H1845   1.084       .  S
C1841      C1842   1.408       .  A
C1842      O1846   1.371   1_655  S
C1843      C1848   1.406       .  A
C1843      C1852   1.403       .  A
O1844      H1860   0.992   1_655  S
O1846      H1857   0.992       .  S
C1848      C1849   1.404       .  A
C1848      O1853   1.372   1_655  S
C1849      C1850   1.411       .  A
C1849      H1854   1.083   1_655  S
C1850      C1851   1.415       .  A
C1851      C1852   1.398       .  A
C1851      O1855   1.372       .  S
C1852      H1856   1.084       .  S
O1853      H1858   0.992       .  S
O1855      H1859   0.992       .  S
C1861      C1862   1.402       .  A
C1861      C1866   1.395       .  A
C1861      H1871   1.084       .  S
C1862      C1867   1.481       .  S
C1862      C1863   1.408       .  A
C1863      C1864   1.402       .  A
C1863      O1868   1.372       .  S
C1864      C1865   1.405       .  A
C1864      H1869   1.083       .  S
C1865      C1866   1.412       .  A
C1866      O1870   1.372       .  S
C1867      C1872   1.408       .  A
C1867      C1876   1.402       .  A
O1868      H1884   0.992       .  S
O1870      H1881   0.992       .  S
C1872      C1873   1.403       .  A
C1872      O1877   1.371       .  S
C1873      C1874   1.408       .  A
C1873      H1878   1.083       .  S
C1874      C1875   1.412       .  A
C1875      C1876   1.395       .  A
C1875      O1879   1.372       .  S
C1876      H1880   1.084       .  S
O1877      H1882   0.992       .  S
O1879      H1883   0.992       .  S
C1885      C1886   1.400       .  A
C1885      C1890   1.401       .  A
C1885      H1895   1.084   1_554  S
C1886      C1891   1.476       .  S
C1886      C1887   1.406       .  A
C1887      C1888   1.398       .  A
C1887      O1892   1.372       .  S
C1888      C1889   1.406       .  A
C1888      H1893   1.084       .  S
C1889      C1890   1.414       .  A
C1890      O1894   1.372   1_554  S
C1891      C1896   1.407       .  A
C1891      C1900   1.400       .  A
O1892      H1908   0.992       .  S
O1894      H1905   0.992       .  S
C1896      C1897   1.403       .  A
C1896      O1901   1.371       .  S
C1897      C1898   1.406       .  A
C1897      H1902   1.084       .  S
C1898      C1899   1.411       .  A
C1899      C1900   1.395       .  A
C1899      O1903   1.372       .  S
C1900      H1904   1.084       .  S
O1901      H1906   0.992       .  S
O1903      H1907   0.992       .  S
C1909      C1910   1.404       .  A
C1909      C1914   1.400       .  A
C1909      H1919   1.084       .  S
C1910      C1915   1.489       .  S
C1910      C1911   1.410       .  A
C1911      C1912   1.406       .  A
C1911      O1916   1.372       .  S
C1912      C1913   1.405       .  A
C1912      H1917   1.083       .  S
C1913      C1914   1.413       .  A
C1914      O1918   1.372       .  S
C1915      C1920   1.409       .  A
C1915      C1924   1.402       .  A
O1916      H1932   0.992       .  S
O1918      H1929   0.992       .  S
C1920      C1921   1.405       .  A
C1920      O1925   1.372       .  S
C1921      C1922   1.410       .  A
C1921      H1926   1.083       .  S
C1922      C1923   1.415       .  A
C1923      C1924   1.400       .  A
C1923      O1927   1.372       .  S
C1924      H1928   1.084       .  S
O1925      H1930   0.992       .  S
O1927      H1931   0.992       .  S
C1933      C1934   1.408       .  A
C1933      C1938   1.408       .  A
C1933      H1943   1.083       .  S
C1934      C1939   1.489       .  S
C1934      C1935   1.407       .  A
C1935      C1936   1.398       .  A
C1935      O1940   1.373       .  S
C1936      C1937   1.407       .  A
C1936      H1941   1.084       .  S
C1937      C1938   1.410       .  A
C1938      O1942   1.371       .  S
C1939      C1944   1.410       .  A
C1939      C1948   1.404       .  A
O1940      H1956   0.992       .  S
O1942      H1953   0.992       .  S
C1944      C1945   1.400       .  A
C1944      O1949   1.372       .  S
C1945      C1946   1.407       .  A
C1945      H1950   1.083       .  S
C1946      C1947   1.413       .  A
C1947      C1948   1.404       .  A
C1947      O1951   1.371       .  S
C1948      H1952   1.083       .  S
O1949      H1954   0.992       .  S
O1951      H1955   0.992       .  S
C1957      C1958   1.404       .  A
C1957      C1962   1.403       .  A
C1957      H1967   1.083       .  S
C1958      C1963   1.477       .  S
C1958      C1959   1.405       .  A
C1959      C1960   1.392       .  A
C1959      O1964   1.373   1_554  S
C1960      C1961   1.405       .  A
C1960      H1965   1.084   1_554  S
C1961      C1962   1.412       .  A
C1962      O1966   1.371       .  S
C1963      C1968   1.406       .  A
C1963      C1972   1.404       .  A
O1964      H1980   0.992       .  S
O1966      H1977   0.992       .  S
C1968      C1969   1.399       .  A
C1968      O1973   1.372       .  S
C1969      C1970   1.406       .  A
C1969      H1974   1.083       .  S
C1970      C1971   1.408       .  A
C1971      C1972   1.396       .  A
C1971      O1975   1.372       .  S
C1972      H1976   1.084       .  S
O1973      H1978   0.992       .  S
O1975      H1979   0.992       .  S
C1981      C1982   1.398       .  A
C1981      C1986   1.393   1_455  A
C1981      H1991   1.084       .  S
C1982      C1987   1.476       .  S
C1982      C1983   1.407   1_455  A
C1983      C1984   1.404       .  A
C1983      O1988   1.371       .  S
C1984      C1985   1.407       .  A
C1984      H1989   1.083       .  S
C1985      C1986   1.415       .  A
C1986      O1990   1.372       .  S
C1987      C1992   1.407       .  A
C1987      C1996   1.402       .  A
O1988      H2004   0.992       .  S
O1990      H2001   0.992   1_655  S
C1992      C1993   1.394       .  A
C1992      O1997   1.372       .  S
C1993      C1994   1.401       .  A
C1993      H1998   1.084       .  S
C1994      C1995   1.412       .  A
C1995      C1996   1.401       .  A
C1995      O1999   1.372       .  S
C1996      H2000   1.084       .  S
O1997      H2002   0.992   1_455  S
O1999      H2003   0.992       .  S
C2005      C2006   1.401       .  A
C2005      C2010   1.394       .  A
C2005      H2015   1.084       .  S
C2006      C2011   1.482       .  S
C2006      C2007   1.410       .  A
C2007      C2008   1.403       .  A
C2007      O2012   1.372       .  S
C2008      C2009   1.405       .  A
C2008      H2013   1.083       .  S
C2009      C2010   1.412       .  A
C2010      O2014   1.372       .  S
C2011      C2016   1.408       .  A
C2011      C2020   1.403       .  A
O2012      H2028   0.992       .  S
O2014      H2025   0.992       .  S
C2016      C2017   1.396       .  A
C2016      O2021   1.373       .  S
C2017      C2018   1.406       .  A
C2017      H2022   1.084       .  S
C2018      C2019   1.413       .  A
C2019      C2020   1.402       .  A
C2019      O2023   1.372       .  S
C2020      H2024   1.083       .  S
O2021      H2026   0.992       .  S
O2023      H2027   0.992       .  S
C2029      C2030   1.404       .  A
C2029      C2034   1.406       .  A
C2029      H2039   1.083       .  S
C2030      C2035   1.479       .  S
C2030      C2031   1.403       .  A
C2031      C2032   1.394       .  A
C2031      O2036   1.373       .  S
C2032      C2033   1.409       .  A
C2032      H2037   1.082       .  S
C2033      C2034   1.415       .  A
C2034      O2038   1.371       .  S
C2035      C2040   1.409       .  A
C2035      C2044   1.402       .  A
O2036      H2052   0.992       .  S
O2038      H2049   0.992       .  S
C2040      C2041   1.399       .  A
C2040      O2045   1.372       .  S
C2041      C2042   1.403       .  A
C2041      H2046   1.084       .  S
C2042      C2043   1.409       .  A
C2043      C2044   1.402       .  A
C2043      O2047   1.372       .  S
C2044      H2048   1.083       .  S
O2045      H2050   0.992       .  S
O2047      H2051   0.992       .  S
C2053      C2054   1.402       .  A
C2053      C2058   1.404       .  A
C2053      H2063   1.084       .  S
C2054      C2059   1.485       .  S
C2054      C2055   1.408       .  A
C2055      C2056   1.396       .  A
C2055      O2060   1.372       .  S
C2056      C2057   1.407       .  A
C2056      H2061   1.083       .  S
C2057      C2058   1.417       .  A
C2058      O2062   1.372       .  S
C2059      C2064   1.411       .  A
C2059      C2068   1.400       .  A
O2060      H2076   0.992       .  S
O2062      H2073   0.992       .  S
C2064      C2065   1.406       .  A
C2064      O2069   1.372       .  S
C2065      C2066   1.406       .  A
C2065      H2070   1.083       .  S
C2066      C2067   1.411       .  A
C2067      C2068   1.395       .  A
C2067      O2071   1.372       .  S
C2068      H2072   1.084       .  S
O2069      H2074   0.992       .  S
O2071      H2075   0.992       .  S
C2077      C2078   1.404       .  A
C2077      C2082   1.403       .  A
C2077      H2087   1.083       .  S
C2078      C2083   1.484       .  S
C2078      C2079   1.407       .  A
C2079      C2080   1.395       .  A
C2079      O2084   1.372       .  S
C2080      C2081   1.409       .  A
C2080      H2085   1.083       .  S
C2081      C2082   1.413       .  A
C2082      O2086   1.371       .  S
C2083      C2088   1.409       .  A
C2083      C2092   1.407       .  A
O2084      H2100   0.992       .  S
O2086      H2097   0.992       .  S
C2088      C2089   1.398       .  A
C2088      O2093   1.371       .  S
C2089      C2090   1.402       .  A
C2089      H2094   1.084       .  S
C2090      C2091   1.407       .  A
C2091      C2092   1.400       .  A
C2091      O2095   1.372       .  S
C2092      H2096   1.084       .  S
O2093      H2098   0.992       .  S
O2095      H2099   0.992       .  S
C2101      C2102   1.403       .  A
C2101      C2106   1.394       .  A
C2101      H2111   1.083       .  S
C2102      C2107   1.481       .  S
C2102      C2103   1.407       .  A
C2103      C2104   1.400       .  A
C2103      O2108   1.371       .  S
C2104      C2105   1.406       .  A
C2104      H2109   1.083       .  S
C2105      C2106   1.413       .  A
C2106      O2110   1.373       .  S
C2107      C2112   1.407       .  A
C2107      C2116   1.406       .  A
O2108      H2124   0.992       .  S
O2110      H2121   0.992       .  S
C2112      C2113   1.393       .  A
C2112      O2117   1.374       .  S
C2113      C2114   1.404       .  A
C2113      H2118   1.084       .  S
C2114      C2115   1.410       .  A
C2115      C2116   1.404       .  A
C2115      O2119   1.371       .  S
C2116      H2120   1.083       .  S
O2117      H2122   0.992       .  S
O2119      H2123   0.992       .  S
C2125      C2126   1.406       .  A
C2125      C2130   1.405       .  A
C2125      H2135   1.083       .  S
C2126      C2131   1.486       .  S
C2126      C2127   1.408       .  A
C2127      C2128   1.398       .  A
C2127      O2132   1.373       .  S
C2128      C2129   1.402       .  A
C2128      H2133   1.084       .  S
C2129      C2130   1.410       .  A
C2130      O2134   1.372       .  S
C2131      C2136   1.407       .  A
C2131      C2140   1.401       .  A
O2132      H2148   0.992       .  S
O2134      H2145   0.992       .  S
C2136      C2137   1.398       .  A
C2136      O2141   1.372       .  S
C2137      C2138   1.409       .  A
C2137      H2142   1.083       .  S
C2138      C2139   1.417       .  A
C2139      C2140   1.408       .  A
C2139      O2143   1.374       .  S
C2140      H2144   1.084       .  S
O2141      H2146   0.992       .  S
O2143      H2147   0.992       .  S
C2149      C2150   1.402   1_545  A
C2149      C2154   1.405       .  A
C2149      H2159   1.084       .  S
C2150      C2155   1.486       .  S
C2150      C2151   1.408   1_565  A
C2151      C2152   1.401       .  A
C2151      O2156   1.372   1_545  S
C2152      C2153   1.407       .  A
C2152      H2157   1.082       .  S
C2153      C2154   1.415       .  A
C2154      O2158   1.371       .  S
C2155      C2160   1.410       .  A
C2155      C2164   1.402       .  A
O2156      H2172   0.992   1_565  S
O2158      H2169   0.992       .  S
C2160      C2161   1.406       .  A
C2160      O2165   1.371       .  S
C2161      C2162   1.407       .  A
C2161      H2166   1.083       .  S
C2162      C2163   1.411       .  A
C2163      C2164   1.398       .  A
C2163      O2167   1.372       .  S
C2164      H2168   1.084       .  S
O2165      H2170   0.992       .  S
O2167      H2171   0.992       .  S
C2173      C2174   1.398       .  A
C2173      C2178   1.396   1_655  A
C2173      H2183   1.084       .  S
C2174      C2179   1.471       .  S
C2174      C2175   1.407       .  A
C2175      C2176   1.396   1_655  A
C2175      O2180   1.372       .  S
C2176      C2177   1.404       .  A
C2176      H2181   1.084       .  S
C2177      C2178   1.414       .  A
C2178      O2182   1.372       .  S
C2179      C2184   1.406       .  A
C2179      C2188   1.401       .  A
O2180      H2196   0.992   1_655  S
O2182      H2193   0.992   1_455  S
C2184      C2185   1.400       .  A
C2184      O2189   1.372       .  S
C2185      C2186   1.404       .  A
C2185      H2190   1.084       .  S
C2186      C2187   1.407       .  A
C2187      C2188   1.395       .  A
C2187      O2191   1.372       .  S
C2188      H2192   1.084       .  S
O2189      H2194   0.992       .  S
O2191      H2195   0.992       .  S
C2197      C2198   1.405       .  A
C2197      C2202   1.403       .  A
C2197      H2207   1.083   1_545  S
C2198      C2203   1.488       .  S
C2198      C2199   1.409       .  A
C2199      C2200   1.398       .  A
C2199      O2204   1.372       .  S
C2200      C2201   1.406       .  A
C2200      H2205   1.084       .  S
C2201      C2202   1.412       .  A
C2202      O2206   1.372       .  S
C2203      C2208   1.408   1_545  A
C2203      C2212   1.404       .  A
O2204      H2220   0.992       .  S
O2206      H2217   0.992       .  S
C2208      C2209   1.403       .  A
C2208      O2213   1.371       .  S
C2209      C2210   1.408       .  A
C2209      H2214   1.083       .  S
C2210      C2211   1.415   1_565  A
C2211      C2212   1.401       .  A
C2211      O2215   1.372       .  S
C2212      H2216   1.084       .  S
O2213      H2218   0.992       .  S
O2215      H2219   0.992       .  S
C2221      C2222   1.406       .  A
C2221      C2226   1.404       .  A
C2221      H2231   1.083       .  S
C2222      C2227   1.486       .  S
C2222      C2223   1.409       .  A
C2223      C2224   1.393       .  A
C2223      O2228   1.372       .  S
C2224      C2225   1.404       .  A
C2224      H2229   1.083       .  S
C2225      C2226   1.413       .  A
C2226      O2230   1.371       .  S
C2227      C2232   1.409       .  A
C2227      C2236   1.404       .  A
O2228      H2244   0.992       .  S
O2230      H2241   0.992       .  S
C2232      C2233   1.402       .  A
C2232      O2237   1.372       .  S
C2233      C2234   1.407       .  A
C2233      H2238   1.083       .  S
C2234      C2235   1.411       .  A
C2235      C2236   1.394       .  A
C2235      O2239   1.372       .  S
C2236      H2240   1.084       .  S
O2237      H2242   0.992       .  S
O2239      H2243   0.992       .  S
C2245      C2246   1.403       .  A
C2245      C2250   1.397       .  A
C2245      H2255   1.084       .  S
C2246      C2251   1.480       .  S
C2246      C2247   1.407       .  A
C2247      C2248   1.402       .  A
C2247      O2252   1.372       .  S
C2248      C2249   1.406       .  A
C2248      H2253   1.084       .  S
C2249      C2250   1.411       .  A
C2250      O2254   1.371       .  S
C2251      C2256   1.408       .  A
C2251      C2260   1.400       .  A
O2252      H2268   0.992       .  S
O2254      H2265   0.992       .  S
C2256      C2257   1.403       .  A
C2256      O2261   1.371       .  S
C2257      C2258   1.407       .  A
C2257      H2262   1.083       .  S
C2258      C2259   1.413       .  A
C2259      C2260   1.395       .  A
C2259      O2263   1.372       .  S
C2260      H2264   1.084       .  S
O2261      H2266   0.992       .  S
O2263      H2267   0.992       .  S
