geometry optimzed in LAMMPS
_audit_creation_date              2020-11-30 
_audit_creation_method            'lammps2cif' 
_symmetry_space_group_name_H-M    'P1' 
_symmetry_Int_Tables_number       1 
_symmetry_cell_setting            triclinic 
loop_ 
_symmetry_equiv_pos_as_xyz 
  x,y,z 
_cell_length_a                    47.5510826 
_cell_length_b                    47.636638276777944 
_cell_length_c                    47.55114613855596 
_cell_angle_alpha                 90.01372838485722 
_cell_angle_beta                  90.13696131163083 
_cell_angle_gamma                 89.77856929879765 
loop_ 
_atom_site_label 
_atom_site_type_symbol 
_atom_site_fract_x 
_atom_site_fract_y 
_atom_site_fract_z 
_atom_site_charge 
Zn1        Zn  0.52090477  0.51619209  0.96941680     1.49700
Zn2        Zn  0.52206077  0.46843135  0.01725542     1.49400
Zn3        Zn  0.47456135  0.51716600  0.01840132     1.49100
Zn4        Zn  0.47293450  0.46825137  0.97096336     1.49500
O5          O  0.49753460  0.49257240  0.99402109    -1.83200
O6          O  0.56269532  0.50814771  0.97518603    -0.73800
O7          O  0.51736498  0.47714254  0.05868080    -0.73600
O8          O  0.48123412  0.55878254  0.00973727    -0.73100
O9          O  0.56303575  0.47464516  0.00763838    -0.73800
O10         O  0.51394256  0.55793132  0.97651522    -0.73400
O11         O  0.48421196  0.51013891  0.05981867    -0.74000
O12         O  0.43179598  0.47639860  0.97930148    -0.73400
O13         O  0.51365235  0.42695529  0.01145595    -0.74100
O14         O  0.43280668  0.50975288  0.01198367    -0.73500
O15         O  0.48037811  0.42677472  0.97864613    -0.74000
O16         O  0.47892568  0.47505568  0.92914385    -0.73900
O17         O  0.51146195  0.50838361  0.92854729    -0.73700
C18         C  0.57607534  0.49098792  0.99095258     0.78100
C19         C  0.50164152  0.49394345  0.07244184     0.78600
C20         C  0.49749969  0.57160891  0.99274400     0.77500
C21         C  0.41908809  0.49332718  0.99579471     0.77900
C22         C  0.49691130  0.41364957  0.99528753     0.79000
C23         C  0.49478475  0.49182906  0.91564171     0.78100
Zn24       Zn  0.51976105  0.96771030  0.47938161     1.49700
Zn25       Zn  0.47128535  0.97249829  0.52659288     1.49400
Zn26       Zn  0.51985155  0.01983793  0.52455785     1.49100
Zn27       Zn  0.47337211  0.01711537  0.47505233     1.49500
O28         O  0.49619176  0.99430815  0.50142579    -1.83200
O29         O  0.51068086  0.92693281  0.48915408    -0.73800
O30         O  0.48022526  0.98022114  0.56793566    -0.73600
O31         O  0.56131539  0.01272813  0.51536813    -0.73100
O32         O  0.47609203  0.93024345  0.52044080    -0.73800
O33         O  0.56151552  0.97492224  0.48761887    -0.73400
O34         O  0.51500502  0.01137526  0.56686735    -0.74000
O35         O  0.48075139  0.05891367  0.48022499    -0.73400
O36         O  0.43018559  0.98206389  0.51897750    -0.74100
O37         O  0.51048916  0.06182492  0.51633371    -0.73500
O38         O  0.43168572  0.01105619  0.48221708    -0.74000
O39         O  0.48192667  0.00719885  0.43401675    -0.73900
O40         O  0.51303625  0.97228409  0.43674539    -0.73700
C41         C  0.49265364  0.91553331  0.50531541     0.78100
C42         C  0.49837112  0.99539897  0.58053160     0.78600
C43         C  0.57449889  0.99390320  0.50144889     0.77500
C44         C  0.49516127  0.07350623  0.49746714     0.77900
C45         C  0.41792241  0.99712825  0.50044095     0.79000
C46         C  0.49774372  0.98898530  0.42222693     0.78100
Zn47       Zn  0.02024465  0.48326668  0.52617844     1.49700
Zn48       Zn  0.97152013  0.48445435  0.47921564     1.49400
Zn49       Zn  0.97266254  0.53306927  0.52690113     1.49100
Zn50       Zn  0.01987172  0.53133441  0.47824721     1.49500
O51         O  0.99608406  0.50807075  0.50280711    -1.83200
O52         O  0.01079917  0.44135464  0.52015761    -0.73800
O53         O  0.93035824  0.49195799  0.48794697    -0.73600
O54         O  0.98231658  0.52689606  0.56837082    -0.73100
O55         O  0.97814530  0.44310842  0.48681112    -0.73800
O56         O  0.01483795  0.49320414  0.56752729    -0.73400
O57         O  0.93056684  0.52455978  0.52141668    -0.74000
O58         O  0.01295015  0.57318027  0.48531742    -0.73400
O59         O  0.97933424  0.49005903  0.43741372    -0.74100
O60         O  0.98005238  0.57477712  0.51839706    -0.73500
O61         O  0.01285599  0.52235438  0.43694977    -0.74000
O62         O  0.06130729  0.52272817  0.48468599    -0.73900
O63         O  0.06196987  0.48871156  0.51661365    -0.73700
C64         C  0.99388884  0.42896873  0.50332017     0.78100
C65         C  0.91723605  0.50768148  0.50530602     0.78600
C66         C  0.99946328  0.51056881  0.58113446     0.77500
C67         C  0.99685574  0.58725166  0.50163549     0.77900
C68         C  0.99673150  0.50532612  0.42397354     0.79000
C69         C  0.07486042  0.50516490  0.49983247     0.78100
Zn70       Zn  0.98481219  0.02954778  0.02766825     1.49700
Zn71       Zn  0.03191889  0.98164309  0.02755979     1.49400
Zn72       Zn  0.98325808  0.98210287  0.97957896     1.49100
Zn73       Zn  0.03169124  0.02946850  0.97858616     1.49500
O74         O  0.00805714  0.00568008  0.00317765    -1.83200
O75         O  0.99286557  0.02224622  0.06901279    -0.73800
O76         O  0.02291179  0.94048305  0.02092717    -0.73600
O77         O  0.94204785  0.99127616  0.98720379    -0.73100
O78         O  0.02613034  0.98951624  0.06951706    -0.73800
O79         O  0.94315921  0.02353134  0.02088210    -0.73400
O80         O  0.98934611  0.94061691  0.98831169    -0.74000
O81         O  0.02406917  0.02061006  0.93682581    -0.73400
O82         O  0.07327257  0.98807153  0.01930236    -0.74100
O83         O  0.99060188  0.98820847  0.93761938    -0.73500
O84         O  0.07338968  0.02166066  0.98681741    -0.74000
O85         O  0.02360614  0.07156106  0.98546267    -0.73900
O86         O  0.99226179  0.07043576  0.01999164    -0.73700
C87         C  0.00963421  0.00618459  0.08254492     0.78100
C88         C  0.00563985  0.92737999  0.00511560     0.78600
C89         C  0.92938499  0.00787706  0.00409140     0.77500
C90         C  0.00730325  0.00403846  0.92391696     0.77900
C91         C  0.08656188  0.00471086  0.00309613     0.79000
C92         C  0.00748072  0.08422262  0.00287677     0.78100
C93         C  0.65175972  0.47085540  0.00805824     0.04100
C94         C  0.66660887  0.48943055  0.99084780    -0.12100
C95         C  0.65233512  0.50829965  0.97323642     0.01600
C96         C  0.62275610  0.50875931  0.97311504    -0.10600
C97         C  0.60739752  0.49008009  0.99022605     0.04100
C98         C  0.62226352  0.47096336  0.00745193    -0.10000
H99         H  0.68940154  0.48961578  0.99160750     0.09700
H100        H  0.61186305  0.52381843  0.95991105     0.07200
H101        H  0.61102021  0.45660620  0.02101669     0.07000
C102        C  0.34359223  0.51547153  0.01167183     0.04100
C103        C  0.37314469  0.51455139  0.01176597    -0.12100
C104        C  0.38773670  0.49410409  0.99591615     0.01600
C105        C  0.37207325  0.47456860  0.97997621    -0.10600
C106        C  0.34252168  0.47542234  0.98003264     0.04100
C107        C  0.32859152  0.49547755  0.99634019    -0.10000
H108        H  0.38462743  0.52982782  0.02412046     0.09700
H109        H  0.38271264  0.45853748  0.96781983     0.07200
H110        H  0.30580136  0.49546105  0.99713693     0.07000
C111        C  0.02288894  0.51437032  0.34873350     0.04100
C112        C  0.01916074  0.51829967  0.37778778    -0.12100
C113        C  0.99915237  0.50242321  0.39279655     0.01600
C114        C  0.98195055  0.48341622  0.37782402    -0.10600
C115        C  0.98551067  0.47941815  0.34871224     0.04100
C116        C  0.00627944  0.49462690  0.33461297    -0.10000
H117        H  0.03128453  0.53421701  0.38852936     0.09700
H118        H  0.96538350  0.47226004  0.38862550     0.07200
H119        H  0.00868173  0.49197527  0.31208791     0.07000
C120        C  0.98645099  0.15835464  0.02443350     0.04100
C121        C  0.98866653  0.12901709  0.02365529    -0.12100
C122        C  0.00597994  0.11554618  0.00361037     0.01600
C123        C  0.02109188  0.13228347  0.98435908    -0.10600
C124        C  0.01941308  0.16183490  0.98566729     0.04100
C125        C  0.00210584  0.17453933  0.00575116    -0.10000
H126        H  0.97648589  0.11680871  0.03845804     0.09700
H127        H  0.03383248  0.12245657  0.96825132     0.07200
H128        H  0.00039166  0.19724000  0.00650750     0.07000
C129        C  0.98453398  0.52763928  0.65837678     0.04100
C130        C  0.98319796  0.52833438  0.62876087    -0.12100
C131        C  0.00137498  0.51127966  0.61247219     0.01600
C132        C  0.02152348  0.49446775  0.62642982    -0.10600
C133        C  0.02178852  0.49249238  0.65587462     0.04100
C134        C  0.00268596  0.50855164  0.67146765    -0.10000
H135        H  0.96827659  0.54226436  0.61856750     0.09700
H136        H  0.03709311  0.48309570  0.61440432     0.07200
H137        H  0.00247425  0.50669324  0.69419424     0.07000
Zn138      Zn  0.22297452  0.32000140  0.81225052     1.49700
Zn139      Zn  0.16060705  0.33685120  0.83257842     1.49400
Zn140      Zn  0.17502523  0.31992611  0.76773722     1.49100
Zn141      Zn  0.17602558  0.27334479  0.81405716     1.49500
O142        O  0.18319021  0.31277950  0.80710584    -1.83200
O143        O  0.22927403  0.34538692  0.84374833    -0.73800
O144        O  0.13961965  0.36667089  0.80807901    -0.73600
O145        O  0.20962795  0.32917701  0.74566007    -0.73100
O146        O  0.18745358  0.35604606  0.86161068    -0.73800
O147        O  0.24296110  0.33383663  0.77789313    -0.73400
O148        O  0.14929367  0.35166001  0.76468871    -0.74000
O149        O  0.16568207  0.25335791  0.77838651    -0.73400
O150        O  0.13197565  0.31194389  0.85415068    -0.74100
O151        O  0.15998839  0.28704150  0.74667756    -0.73500
O152        O  0.14506797  0.26885833  0.84139175    -0.74000
O153        O  0.21049740  0.25257113  0.82692163    -0.73900
O154        O  0.24355004  0.28492552  0.82171436    -0.73700
C155        C  0.21439509  0.35693441  0.86253162     0.78100
C156        C  0.13770278  0.36900573  0.78126122     0.78600
C157        C  0.23504545  0.33376936  0.75237972     0.77500
C158        C  0.16052214  0.26128319  0.75337048     0.77900
C159        C  0.12899657  0.28522433  0.85510830     0.79000
C160        C  0.23619084  0.25983468  0.82653119     0.78100
C161        C  0.01920819  0.85207717  0.02854581     0.04100
C162        C  0.00129479  0.83726155  0.01050987    -0.12100
C163        C  0.98506311  0.85137166  0.99036154     0.01600
C164        C  0.98633913  0.88081220  0.98864208    -0.10600
C165        C  0.00433041  0.89615218  0.00660898     0.04100
C166        C  0.02094458  0.88139327  0.02634139    -0.10000
H167        H  0.00011856  0.81458598  0.01204033     0.09700
H168        H  0.97338989  0.89161158  0.97327875     0.07200
H169        H  0.03527111  0.89259709  0.04005283     0.07000
Zn170      Zn  0.80310955  0.70028061  0.86088913     1.49700
Zn171      Zn  0.80765096  0.65290893  0.81084240     1.49400
Zn172      Zn  0.79417346  0.71133897  0.79955223     1.49100
Zn173      Zn  0.85260592  0.70436718  0.81431686     1.49500
O174        O  0.81617499  0.69027659  0.82384027    -1.83200
O175        O  0.78444560  0.66519137  0.87722458    -0.73800
O176        O  0.77967426  0.65346845  0.77755438    -0.73600
O177        O  0.78512046  0.74759331  0.81656891    -0.73100
O178        O  0.78827566  0.63260926  0.84326200    -0.73800
O179        O  0.77311128  0.73156553  0.85850496    -0.73400
O180        O  0.75841188  0.69229262  0.79123259    -0.74000
O181        O  0.84960878  0.73757705  0.78680533    -0.73400
O182        O  0.84375732  0.63590017  0.79579216    -0.74100
O183        O  0.81397522  0.71926686  0.76374215    -0.73500
O184        O  0.87352927  0.67227030  0.79524608    -0.74000
O185        O  0.87019356  0.71994705  0.84957196    -0.73900
O186        O  0.83659515  0.71698660  0.88246595    -0.73700
C187        C  0.77938027  0.64067031  0.86736723     0.78100
C188        C  0.75920855  0.67068354  0.77581370     0.78600
C189        C  0.77105401  0.74987289  0.83902809     0.77500
C190        C  0.83309535  0.73759743  0.76572299     0.77900
C191        C  0.86722422  0.64695561  0.78884706     0.79000
C192        C  0.86105608  0.72472989  0.87435599     0.78100
Zn193      Zn  0.79968717  0.35341455  0.19842790     1.49700
Zn194      Zn  0.78874721  0.29218270  0.21155170     1.49400
Zn195      Zn  0.80155670  0.30088252  0.15076920     1.49100
Zn196      Zn  0.85027342  0.30434945  0.20202269     1.49500
O197        O  0.81127316  0.31392819  0.18950144    -1.83200
O198        O  0.76970811  0.35886278  0.23088131    -0.73800
O199        O  0.76269421  0.26943834  0.19191867    -0.73600
O200        O  0.78488511  0.33433324  0.13036437    -0.73100
O201        O  0.76709091  0.31337676  0.23673134    -0.73800
O202        O  0.78192360  0.36903463  0.16227333    -0.73400
O203        O  0.77086427  0.26911657  0.14663403    -0.74000
O204        O  0.87011891  0.28795710  0.16827499    -0.73400
O205        O  0.80889745  0.26655420  0.23429367    -0.74100
O206        O  0.83743233  0.28475445  0.13424005    -0.73500
O207        O  0.85447369  0.27299115  0.23300918    -0.74000
O208        O  0.86761938  0.34012326  0.21789805    -0.73900
O209        O  0.83457062  0.37345532  0.21321342    -0.73700
C210        C  0.75971536  0.33774151  0.24373433     0.78100
C211        C  0.75716819  0.26023215  0.16774391     0.78600
C212        C  0.77678319  0.35883119  0.13785386     0.77500
C213        C  0.86210926  0.27996539  0.14390123     0.77900
C214        C  0.83321347  0.25995097  0.24244097     0.79000
C215        C  0.85877492  0.36524060  0.22179668     0.78100
Zn216      Zn  0.15103448  0.69136477  0.19923047     1.49700
Zn217      Zn  0.19973446  0.64436778  0.19461319     1.49400
Zn218      Zn  0.19550637  0.69483031  0.14753607     1.49100
Zn219      Zn  0.20986474  0.70477400  0.20606448     1.49500
O220        O  0.18725525  0.68152646  0.18473866    -1.83200
O221        O  0.13269222  0.65661676  0.21387197    -0.73800
O222        O  0.21493837  0.62696799  0.15882572    -0.73600
O223        O  0.15957925  0.71236954  0.13198774    -0.73100
O224        O  0.16657012  0.62383055  0.21255474    -0.73800
O225        O  0.12981975  0.71168153  0.16853919    -0.73400
O226        O  0.21243355  0.66126172  0.12656854    -0.74000
O227        O  0.24581537  0.71283742  0.18727455    -0.73400
O228        O  0.23206332  0.64630976  0.22356923    -0.74100
O229        O  0.22498934  0.72666650  0.14819747    -0.73500
O230        O  0.21889004  0.68684144  0.24200112    -0.74000
O231        O  0.19038706  0.74064964  0.21409172    -0.73900
O232        O  0.15452753  0.71811419  0.23252612    -0.73700
C233        C  0.14175056  0.63193643  0.21922230     0.78100
C234        C  0.21956084  0.63634655  0.13406794     0.78600
C235        C  0.13618384  0.71901085  0.14352621     0.77500
C236        C  0.24534153  0.72817373  0.16559439     0.77900
C237        C  0.23455250  0.66528649  0.24232663     0.79000
C238        C  0.17104711  0.73900842  0.23223455     0.78100
C239        C  0.51233087  0.33781229  0.01642693     0.04100
C240        C  0.51180840  0.36734481  0.01655374    -0.12100
C241        C  0.49694305  0.38233924  0.99558155     0.01600
C242        C  0.48260943  0.36711663  0.97450460    -0.10600
C243        C  0.48407210  0.33764667  0.97376851     0.04100
C244        C  0.49903685  0.32331190  0.99464502    -0.10000
H245        H  0.52289930  0.37850003  0.03302056     0.09700
H246        H  0.47096718  0.37806606  0.95822779     0.07200
H247        H  0.50058127  0.30061521  0.99371205     0.07000
C248        C  0.51845302  0.64706913  0.97587877     0.04100
C249        C  0.49709899  0.66205296  0.98939761    -0.12100
C250        C  0.47519924  0.64823366  0.00327390     0.01600
C251        C  0.47558958  0.61865402  0.00474488    -0.10600
C252        C  0.49725599  0.60299147  0.99164196     0.04100
C253        C  0.51862452  0.61757998  0.97715225    -0.10000
H254        H  0.49745840  0.68481310  0.98891160     0.09700
H255        H  0.45884966  0.60793189  0.01573480     0.07200
H256        H  0.53556703  0.60611803  0.96712374     0.07000
C257        C  0.51499508  0.01069641  0.34757398     0.04100
C258        C  0.51332203  0.01030675  0.37703305    -0.12100
C259        C  0.49937409  0.98836971  0.39100229     0.01600
C260        C  0.48752008  0.96627993  0.37499615    -0.10600
C261        C  0.48914036  0.96652024  0.34523421     0.04100
C262        C  0.50220386  0.98935745  0.33199080    -0.10000
H263        H  0.52334512  0.02679789  0.38910314     0.09700
H264        H  0.47717583  0.94907370  0.38560663     0.07200
H265        H  0.50313159  0.99022631  0.30923951     0.07000
C266        C  0.16265559  0.98446895  0.02015815     0.04100
C267        C  0.17711438  0.00229983  0.00193641    -0.12100
C268        C  0.16270095  0.02119097  0.98461518     0.01600
C269        C  0.13319125  0.02221242  0.98528627    -0.10600
C270        C  0.11796763  0.00413362  0.00308448     0.04100
C271        C  0.13305256  0.98560885  0.02092331    -0.10000
H272        H  0.19991880  0.00167687  0.00142443     0.09700
H273        H  0.12221072  0.03731801  0.97221865     0.07200
H274        H  0.12188326  0.97240022  0.03562543     0.07000
C275        C  0.85378544  0.02927544  0.02100842     0.04100
C276        C  0.88337152  0.02869795  0.02094244    -0.12100
C277        C  0.89805849  0.00888266  0.00426995     0.01600
C278        C  0.88251664  0.98939879  0.98824983    -0.10600
C279        C  0.85303024  0.98956301  0.98887386     0.04100
C280        C  0.83892480  0.01001629  0.00455021    -0.10000
H281        H  0.89476819  0.04338095  0.03404751     0.09700
H282        H  0.89323376  0.97361868  0.97577782     0.07200
H283        H  0.81611663  0.01040055  0.00465565     0.07000
Zn284      Zn  0.71076739  0.79781672  0.80115377     1.49700
Zn285      Zn  0.70292047  0.85647307  0.81782761     1.49400
Zn286      Zn  0.65158061  0.81099797  0.81624190     1.49100
Zn287      Zn  0.70229246  0.80548662  0.86288419     1.49500
O288        O  0.69011471  0.81907976  0.82660310    -1.83200
O289        O  0.71868362  0.81953787  0.76670067    -0.73800
O290        O  0.67030231  0.87694478  0.79781248    -0.73600
O291        O  0.64926617  0.78202785  0.78388001    -0.73100
O292        O  0.73676027  0.85457247  0.79083894    -0.73800
O293        O  0.69124491  0.76305229  0.79035681    -0.73400
O294        O  0.63446883  0.84688711  0.79998985    -0.74000
O295        O  0.66873979  0.78744689  0.88123768    -0.73400
O296        O  0.71760120  0.87411157  0.85385866    -0.74100
O297        O  0.63299175  0.79277926  0.85076126    -0.73500
O298        O  0.71976615  0.83813312  0.88407992    -0.74000
O299        O  0.73235731  0.77474564  0.85957823    -0.73900
O300        O  0.74718269  0.78648792  0.81718294    -0.73700
C301        C  0.73688125  0.83867327  0.76933476     0.78100
C302        C  0.64480394  0.87031582  0.79196810     0.78600
C303        C  0.66729017  0.76286844  0.77874468     0.77500
C304        C  0.64324045  0.78326778  0.87387602     0.77900
C305        C  0.72476169  0.86370406  0.87762396     0.79000
C306        C  0.74974438  0.77208356  0.83944757     0.78100
C307        C  0.52319172  0.98018686  0.65550998     0.04100
C308        C  0.52249523  0.98136081  0.62582399    -0.12100
C309        C  0.49976467  0.99450904  0.61173955     0.01600
C310        C  0.47784368  0.00646055  0.62765874    -0.10600
C311        C  0.47835090  0.00521684  0.65720281     0.04100
C312        C  0.50084545  0.99186056  0.67076132    -0.10000
H313        H  0.53944207  0.97202626  0.61379651     0.09700
H314        H  0.46064486  0.01714845  0.61710677     0.07200
H315        H  0.50116541  0.99094445  0.69352448     0.07000
Zn316      Zn  0.31756269  0.22549156  0.81206648     1.49700
Zn317      Zn  0.27140272  0.17860047  0.81030337     1.49400
Zn318      Zn  0.31839110  0.17946355  0.76463716     1.49100
Zn319      Zn  0.33439000  0.16214681  0.82869806     1.49500
O320        O  0.31088773  0.18614439  0.80422575    -1.83200
O321        O  0.28362031  0.24548093  0.82706991    -0.73800
O322        O  0.25062373  0.16597479  0.77613236    -0.73600
O323        O  0.33220432  0.21352366  0.74425613    -0.73100
O324        O  0.25065612  0.21324988  0.82073547    -0.73800
O325        O  0.32511695  0.24640142  0.77657899    -0.73400
O326        O  0.28310402  0.17076641  0.74315693    -0.74000
O327        O  0.35498090  0.13284719  0.80375759    -0.73400
O328        O  0.26625399  0.15229444  0.84122819    -0.74100
O329        O  0.34461353  0.14756712  0.76049025    -0.73500
O330        O  0.30882271  0.14236655  0.85795225    -0.74000
O331        O  0.36350750  0.18691279  0.84958905    -0.73900
O332        O  0.35010780  0.23012142  0.83759578    -0.73700
C333        C  0.25794954  0.23819623  0.82632539     0.78100
C334        C  0.25778906  0.16661713  0.75046177     0.78600
C335        C  0.33020975  0.23915008  0.75140040     0.77500
C336        C  0.35699557  0.13049102  0.77698899     0.77900
C337        C  0.28197027  0.14078963  0.85941797     0.79000
C338        C  0.36651394  0.21358893  0.85080736     0.78100
Zn339      Zn  0.34333689  0.82910883  0.15831607     1.49700
Zn340      Zn  0.28042973  0.80954729  0.17426360     1.49400
Zn341      Zn  0.32770380  0.76460561  0.17558075     1.49100
Zn342      Zn  0.32727025  0.81090179  0.22174452     1.49500
O343        O  0.32018162  0.80414234  0.18216271    -1.83200
O344        O  0.31696330  0.85837477  0.13815287    -0.73800
O345        O  0.25974401  0.77519297  0.16022837    -0.73600
O346        O  0.35021699  0.76061186  0.14117437    -0.73100
O347        O  0.27508094  0.84033921  0.14760989    -0.73800
O348        O  0.36231306  0.80386023  0.12785054    -0.73400
O349        O  0.29202928  0.74311368  0.17029368    -0.74000
O350        O  0.33474943  0.77453624  0.24190890    -0.73400
O351        O  0.26033090  0.82065187  0.20947089    -0.74100
O352        O  0.34516181  0.74405148  0.20816412    -0.73500
O353        O  0.29367725  0.82728537  0.24159226    -0.74000
O354        O  0.36040680  0.83534510  0.22671573    -0.73900
O355        O  0.37346772  0.84919088  0.18393360    -0.73700
C356        C  0.29008385  0.85878363  0.13566754     0.78100
C357        C  0.26700764  0.74975627  0.16373378     0.78600
C358        C  0.36215789  0.77717507  0.12407653     0.77500
C359        C  0.34180600  0.75003623  0.23396554     0.77900
C360        C  0.26792641  0.82712842  0.23428235     0.79000
C361        C  0.37696281  0.84877548  0.21074975     0.78100
Zn362      Zn  0.70519356  0.20604469  0.21243120     1.49700
Zn363      Zn  0.69277965  0.14457366  0.20045262     1.49400
Zn364      Zn  0.64368779  0.19585892  0.20240710     1.49100
Zn365      Zn  0.69247666  0.19567180  0.15140242     1.49500
O366        O  0.68232182  0.18432505  0.19052327    -1.83200
O367        O  0.72898896  0.18486957  0.23552050    -0.73800
O368        O  0.65775824  0.12677290  0.21777954    -0.73600
O369        O  0.64026406  0.22853649  0.23242349    -0.73100
O370        O  0.72472611  0.13934617  0.23122671    -0.73800
O371        O  0.68601761  0.23059387  0.23702568    -0.73400
O372        O  0.62573345  0.16145891  0.22028241    -0.74000
O373        O  0.65661577  0.21011470  0.13320846    -0.73400
O374        O  0.70829634  0.12628315  0.16452248    -0.74100
O375        O  0.62412019  0.21007235  0.16723533    -0.73500
O376        O  0.70916396  0.16121746  0.13283657    -0.74000
O377        O  0.72317558  0.22747801  0.14656873    -0.73900
O378        O  0.72923154  0.22997546  0.19212852    -0.73700
C379        C  0.73632933  0.16053165  0.24260154     0.78100
C380        C  0.63386028  0.13639764  0.22569143     0.78600
C381        C  0.66195688  0.23910175  0.24393634     0.77500
C382        C  0.63180578  0.21551993  0.14204127     0.77900
C383        C  0.71502897  0.13611875  0.14038413     0.79000
C384        C  0.73552145  0.23807475  0.16780645     0.78100
C385        C  0.52610157  0.47915247  0.14762988     0.04100
C386        C  0.52455178  0.47877460  0.11805261    -0.12100
C387        C  0.50369165  0.49455679  0.10373362     0.01600
C388        C  0.48470458  0.51087004  0.11963297    -0.10600
C389        C  0.48647329  0.51139505  0.14909278     0.04100
C390        C  0.50749547  0.49611024  0.16273669    -0.10000
H391        H  0.53966097  0.46645336  0.10631036     0.09700
H392        H  0.46852455  0.52317978  0.10924477     0.07200
H393        H  0.50923474  0.49722037  0.18545648     0.07000
C394        C  0.84047552  0.52253212  0.52463608     0.04100
C395        C  0.86999082  0.52473443  0.52336608    -0.12100
C396        C  0.88590237  0.50567463  0.50697751     0.01600
C397        C  0.87158673  0.48426137  0.49218672    -0.10600
C398        C  0.84223498  0.48163203  0.49407800     0.04100
C399        C  0.82695758  0.50078644  0.51028325    -0.10000
H400        H  0.88036498  0.54144457  0.53478734     0.09700
H401        H  0.88314317  0.46955549  0.47918198     0.07200
H402        H  0.80423451  0.49911920  0.51124773     0.07000
Zn403      Zn  0.70731705  0.29271201  0.29661640     1.49700
Zn404      Zn  0.69847934  0.35360846  0.31151533     1.49400
Zn405      Zn  0.64672013  0.30552826  0.30703349     1.49100
Zn406      Zn  0.69525719  0.30146052  0.35859497     1.49500
O407        O  0.68576712  0.31449677  0.31974574    -1.83200
O408        O  0.72986347  0.31361938  0.27209393    -0.73800
O409        O  0.66481857  0.37356792  0.29476109    -0.73600
O410        O  0.64164608  0.27453673  0.27562930    -0.73100
O411        O  0.72986726  0.35878318  0.28045242    -0.73800
O412        O  0.68709082  0.26785132  0.27312153    -0.73400
O413        O  0.63054149  0.34161872  0.29036351    -0.74000
O414        O  0.65945171  0.28427947  0.37471739    -0.73400
O415        O  0.71400231  0.36981074  0.34823951    -0.74100
O416        O  0.62697375  0.28859456  0.34063209    -0.73500
O417        O  0.71146206  0.33483834  0.37974576    -0.74000
O418        O  0.72632809  0.27017898  0.36193811    -0.73900
O419        O  0.73232996  0.26916934  0.31624951    -0.73700
C420        C  0.73865438  0.33779906  0.26643648     0.78100
C421        C  0.64071700  0.36601455  0.28560635     0.78600
C422        C  0.66262830  0.26156044  0.26534152     0.77500
C423        C  0.63483783  0.27969064  0.36480156     0.77900
C424        C  0.71871740  0.35970516  0.37276914     0.79000
C425        C  0.73875930  0.26047552  0.34038091     0.78100
C426        C  0.50844455  0.14587038  0.46701883     0.04100
C427        C  0.50993910  0.11681610  0.47201951    -0.12100
C428        C  0.49475268  0.10459347  0.49422945     0.01600
C429        C  0.47818015  0.12203536  0.51175309    -0.10600
C430        C  0.47594749  0.15120514  0.50630917     0.04100
C431        C  0.49127479  0.16265084  0.48399402    -0.10000
H432        H  0.52314004  0.10378051  0.45878531     0.09700
H433        H  0.46720827  0.11293840  0.52943537     0.07200
H434        H  0.49041127  0.18509873  0.48020954     0.07000
C435        C  0.50701368  0.83990791  0.52637929     0.04100
C436        C  0.48912881  0.82564040  0.50787607    -0.12100
C437        C  0.47165948  0.84027384  0.48917325     0.01600
C438        C  0.47279544  0.86980595  0.48836538    -0.10600
C439        C  0.49097573  0.88452554  0.50656275     0.04100
C440        C  0.50807434  0.86941875  0.52552146    -0.10000
H441        H  0.48896977  0.80287134  0.50789235     0.09700
H442        H  0.45968699  0.88123941  0.47359037     0.07200
H443        H  0.52255162  0.88054992  0.53912527     0.07000
Zn444      Zn  0.35548472  0.69010665  0.30216256     1.49700
Zn445      Zn  0.29667757  0.70346848  0.28828329     1.49400
Zn446      Zn  0.30661543  0.64240533  0.29396004     1.49100
Zn447      Zn  0.30296057  0.68549202  0.34651654     1.49500
O448        O  0.31736624  0.67810613  0.30942621    -1.83200
O449        O  0.35667973  0.72309417  0.27393902    -0.73800
O450        O  0.26024251  0.68735164  0.27752050    -0.73600
O451        O  0.34163400  0.62566105  0.27682757    -0.73100
O452        O  0.31603020  0.71401130  0.25339797    -0.73800
O453        O  0.37597473  0.65696287  0.28409362    -0.73400
O454        O  0.27624038  0.64605944  0.26342182    -0.74000
O455        O  0.28685432  0.64875845  0.36186760    -0.73400
O456        O  0.28921905  0.73801192  0.31005783    -0.74100
O457        O  0.28856567  0.61954056  0.32493150    -0.73500
O458        O  0.26977924  0.71363245  0.34411734    -0.74000
O459        O  0.33506487  0.70438153  0.36857724    -0.73900
O460        O  0.37156980  0.70530968  0.33872040    -0.73700
C461        C  0.33898777  0.72727954  0.25421760     0.78100
C462        C  0.25770640  0.66541986  0.26264514     0.78600
C463        C  0.36713491  0.63365429  0.27404323     0.77500
C464        C  0.28119948  0.62522840  0.35012573     0.77900
C465        C  0.27043656  0.73547667  0.32867493     0.79000
C466        C  0.36028838  0.71150676  0.36232764     0.78100
C467        C  0.14942351  0.51622334  0.47251709     0.04100
C468        C  0.16494025  0.50005688  0.49153927    -0.12100
C469        C  0.15196583  0.48687758  0.51432235     0.01600
C470        C  0.12247451  0.48819975  0.51691554    -0.10600
C471        C  0.10616151  0.50370199  0.49740469     0.04100
C472        C  0.12003956  0.51785167  0.47530141    -0.10000
H473        H  0.18749935  0.49815580  0.48883827     0.09700
H474        H  0.11241589  0.47756392  0.53430774     0.07200
H475        H  0.10808512  0.52994316  0.46009745     0.07000
C476        C  0.50800895  0.51474340  0.84027079     0.04100
C477        C  0.49004739  0.49681875  0.82556986    -0.12100
C478        C  0.47592815  0.47512097  0.83928542     0.01600
C479        C  0.47673587  0.47369873  0.86886000    -0.10600
C480        C  0.49360796  0.49264647  0.88434320     0.04100
C481        C  0.51011237  0.51227363  0.86958521    -0.10000
H482        H  0.48889335  0.49827448  0.80282361     0.09700
H483        H  0.46517242  0.45733670  0.87955934     0.07200
H484        H  0.52518270  0.52502686  0.88079573     0.07000
Zn485      Zn  0.31588725  0.32108828  0.71605870     1.49700
Zn486      Zn  0.26965101  0.32140339  0.66929818     1.49400
Zn487      Zn  0.33433167  0.33670940  0.65239896     1.49100
Zn488      Zn  0.31559707  0.27393274  0.66927176     1.49500
O489        O  0.30929039  0.31357599  0.67627932    -1.83200
O490        O  0.28214945  0.33515082  0.73708453    -0.73800
O491        O  0.26622961  0.35415695  0.64452674    -0.73600
O492        O  0.36281636  0.35763099  0.67818999    -0.73100
O493        O  0.24878314  0.32955460  0.70499888    -0.73800
O494        O  0.34776142  0.34654664  0.72111497    -0.73400
O495        O  0.30949573  0.36585719  0.63067947    -0.74000
O496        O  0.34496773  0.26802455  0.64050712    -0.73400
O497        O  0.24793958  0.28877745  0.65382788    -0.74100
O498        O  0.35784996  0.31047937  0.62590279    -0.73500
O499        O  0.27980669  0.25486088  0.65812010    -0.74000
O500        O  0.32756699  0.25316420  0.70397627    -0.73900
O501        O  0.32559562  0.28607131  0.73688956    -0.73700
C502        C  0.25636172  0.33424045  0.73018242     0.78100
C503        C  0.28279926  0.37000756  0.63097292     0.78600
C504        C  0.36513666  0.35867198  0.70501558     0.77500
C505        C  0.36019471  0.28363796  0.62525483     0.77900
C506        C  0.25466064  0.26295509  0.65369504     0.79000
C507        C  0.32905582  0.26068872  0.72955220     0.78100
Zn508      Zn  0.67606423  0.73009515  0.69582402     1.49700
Zn509      Zn  0.67735160  0.68254980  0.74024523     1.49400
Zn510      Zn  0.66129580  0.66716810  0.67487050     1.49100
Zn511      Zn  0.72414814  0.68300345  0.69391212     1.49500
O512        O  0.68437695  0.69036628  0.70081861    -1.83200
O513        O  0.66446484  0.75029200  0.73122963    -0.73800
O514        O  0.64967517  0.65223109  0.74313392    -0.73600
O515        O  0.63597851  0.69355220  0.65033529    -0.73100
O516        O  0.66601123  0.71625051  0.76294251    -0.73800
O517        O  0.64750166  0.73558525  0.66649046    -0.73400
O518        O  0.63764508  0.63982326  0.69948760    -0.74000
O519        O  0.72968487  0.65579704  0.66337998    -0.73400
O520        O  0.71234248  0.67185673  0.76091428    -0.74100
O521        O  0.68735686  0.64443405  0.64754951    -0.73500
O522        O  0.74559663  0.67041173  0.72832041    -0.74000
O523        O  0.74362005  0.71793035  0.68183297    -0.73900
O524        O  0.71038264  0.75075191  0.68380596    -0.73700
C525        C  0.66351419  0.74199911  0.75657228     0.78100
C526        C  0.63612132  0.63664896  0.72626096     0.78600
C527        C  0.63357317  0.72035378  0.64958126     0.77500
C528        C  0.71421214  0.64262947  0.64610227     0.77900
C529        C  0.73787976  0.66900043  0.75382510     0.79000
C530        C  0.73573443  0.74333392  0.67977854     0.78100
C531        C  0.34235291  0.01948625  0.51280027     0.04100
C532        C  0.32811902  0.99948607  0.49678993    -0.12100
C533        C  0.34281682  0.97886959  0.48195286     0.01600
C534        C  0.37229001  0.97785200  0.48363431    -0.10600
C535        C  0.38695694  0.99795023  0.49955617     0.04100
C536        C  0.37188274  0.01877650  0.51427466    -0.10000
H537        H  0.30531742  0.99999337  0.49585650     0.09700
H538        H  0.38375658  0.96144343  0.47275449     0.07200
H539        H  0.38298439  0.03425279  0.52672348     0.07000
C540        C  0.64862021  0.01716865  0.48432249     0.04100
C541        C  0.66460613  0.99734662  0.49925981    -0.12100
C542        C  0.65164175  0.97622626  0.51510790     0.01600
C543        C  0.62199839  0.97499453  0.51584684    -0.10600
C544        C  0.60563369  0.99468906  0.50072703     0.04100
C545        C  0.61914303  0.01569858  0.48503308    -0.10000
H546        H  0.68735753  0.99860161  0.49880972     0.09700
H547        H  0.61175858  0.95897358  0.52828719     0.07200
H548        H  0.60674369  0.03088730  0.47335604     0.07000
C549        C  0.00876105  0.35122125  0.51844144     0.04100
C550        C  0.00815369  0.38074163  0.52128350    -0.12100
C551        C  0.99279031  0.39757766  0.50206269     0.01600
C552        C  0.97669213  0.38415754  0.48090415    -0.10600
C553        C  0.97681211  0.35479699  0.47837565     0.04100
C554        C  0.99298561  0.33875760  0.49690743    -0.10000
H555        H  0.01915436  0.39059260  0.53854123     0.09700
H556        H  0.96434573  0.39641147  0.46615153     0.07200
H557        H  0.99314351  0.31610601  0.49455844     0.07000
C558        C  0.98831083  0.02422263  0.15747292     0.04100
C559        C  0.98886310  0.02291105  0.12804761    -0.12100
C560        C  0.00963935  0.00710293  0.11396481     0.01600
C561        C  0.02995748  0.99244648  0.13019059    -0.10600
C562        C  0.02954458  0.99386949  0.15988129     0.04100
C563        C  0.00830444  0.00934862  0.17314373    -0.10000
H564        H  0.97278968  0.03398412  0.11622175     0.09700
H565        H  0.04608981  0.98008841  0.11988298     0.07200
H566        H  0.00705548  0.00957523  0.19589657     0.07000
C567        C  0.98516460  0.66486787  0.52038053     0.04100
C568        C  0.98319388  0.63530923  0.52087415    -0.12100
C569        C  0.99809149  0.61868714  0.50110971     0.01600
C570        C  0.01473523  0.63246136  0.48085670    -0.10600
C571        C  0.01667904  0.66183287  0.48027058     0.04100
C572        C  0.00160680  0.67781138  0.49982369    -0.10000
H573        H  0.97021456  0.62533430  0.53678572     0.09700
H574        H  0.02635371  0.62020079  0.46509157     0.07200
H575        H  0.00288749  0.70041260  0.49918779     0.07000
Zn576      Zn  0.23292581  0.81682652  0.31498240     1.49700
Zn577      Zn  0.18544339  0.81800864  0.27003749     1.49400
Zn578      Zn  0.18783917  0.76943336  0.31575446     1.49100
Zn579      Zn  0.16900140  0.83235556  0.33392326     1.49500
O580        O  0.19327704  0.80943662  0.30910491    -1.83200
O581        O  0.25351047  0.83164435  0.28149035    -0.73800
O582        O  0.17024872  0.78519909  0.24901962    -0.73600
O583        O  0.22241030  0.74873102  0.33030551    -0.73100
O584        O  0.22087946  0.82504371  0.24886564    -0.73800
O585        O  0.25434492  0.78160255  0.32275828    -0.73400
O586        O  0.17805668  0.75051216  0.27943256    -0.74000
O587        O  0.14008984  0.80579494  0.35328593    -0.73400
O588        O  0.16026952  0.85112929  0.26645445    -0.74100
O589        O  0.15590124  0.76340008  0.34122386    -0.73500
O590        O  0.14785427  0.86285680  0.30998430    -0.74000
O591        O  0.19477025  0.85152293  0.36373993    -0.73900
O592        O  0.23753552  0.84156071  0.34743115    -0.73700
C593        C  0.24621390  0.82958489  0.25589142     0.78100
C594        C  0.17160116  0.75926302  0.25500303     0.78600
C595        C  0.24790976  0.75648737  0.32868751     0.77500
C596        C  0.13815850  0.77893120  0.35373783     0.77900
C597        C  0.14697394  0.86706085  0.28334265     0.79000
C598        C  0.22166234  0.85295996  0.36554757     0.78100
Zn599      Zn  0.78955686  0.20554685  0.29521223     1.49700
Zn600      Zn  0.80024292  0.14464509  0.30807639     1.49400
Zn601      Zn  0.85099802  0.19384578  0.30493569     1.49100
Zn602      Zn  0.80323142  0.19617295  0.35667546     1.49500
O603        O  0.81226165  0.18386295  0.31744484    -1.83200
O604        O  0.76611041  0.18483353  0.27115813    -0.73800
O605        O  0.83481752  0.12491800  0.29216454    -0.73600
O606        O  0.85485910  0.22514706  0.27387791    -0.73100
O607        O  0.76920972  0.13936433  0.27662139    -0.73800
O608        O  0.80916423  0.23036678  0.27142069    -0.73400
O609        O  0.86805643  0.15815437  0.28855166    -0.74000
O610        O  0.83967373  0.21162636  0.37389423    -0.73400
O611        O  0.78247788  0.12866948  0.34374100    -0.74100
O612        O  0.87089324  0.21063259  0.33862632    -0.73500
O613        O  0.78411566  0.16308649  0.37593557    -0.74000
O614        O  0.77365052  0.22862843  0.36097111    -0.73900
O615        O  0.76525560  0.22916400  0.31563791    -0.73700
C616        C  0.75841264  0.16053753  0.26441750     0.78100
C617        C  0.85896622  0.13332299  0.28387114     0.78600
C618        C  0.83337667  0.23739952  0.26363784     0.77500
C619        C  0.86381840  0.21759028  0.36361151     0.77900
C620        C  0.77623743  0.13867624  0.36795321     0.79000
C621        C  0.76015193  0.23816641  0.33995459     0.78100
C622        C  0.02584745  0.01955356  0.84719346     0.04100
C623        C  0.02685246  0.01897755  0.87679954    -0.12100
C624        C  0.00696637  0.00340585  0.89237871     0.01600
C625        C  0.98650664  0.98766202  0.87751206    -0.10600
C626        C  0.98569045  0.98795285  0.84787968     0.04100
C627        C  0.00549142  0.00368371  0.83312900    -0.10000
H628        H  0.04323902  0.03041560  0.88763333     0.09700
H629        H  0.97102985  0.97548719  0.88883782     0.07200
H630        H  0.00482493  0.00382808  0.81032053     0.07000
Zn631      Zn  0.81717197  0.77721310  0.68589582     1.49700
Zn632      Zn  0.81970715  0.82143499  0.73517107     1.49400
Zn633      Zn  0.83538362  0.84068057  0.67093625     1.49100
Zn634      Zn  0.77223358  0.82484369  0.68958157     1.49500
O635        O  0.81178421  0.81657684  0.69519460    -1.83200
O636        O  0.82631222  0.75478865  0.72007735    -0.73800
O637        O  0.84686126  0.85240364  0.74000579    -0.73600
O638        O  0.86379521  0.81495934  0.64869306    -0.73100
O639        O  0.83421839  0.78582398  0.75396337    -0.73800
O640        O  0.84809847  0.77233967  0.65869464    -0.73400
O641        O  0.85736265  0.86841886  0.69730148    -0.74000
O642        O  0.76629221  0.84921683  0.65690495    -0.73400
O643        O  0.78418767  0.83161984  0.75656501    -0.74100
O644        O  0.80879006  0.86233945  0.64259176    -0.73500
O645        O  0.75297083  0.84094021  0.72300759    -0.74000
O646        O  0.75050047  0.78993929  0.68365431    -0.73900
O647        O  0.78244767  0.75778012  0.67272926    -0.73700
C648        C  0.83259866  0.76057980  0.74534211     0.78100
C649        C  0.85970835  0.86966196  0.72420473     0.78600
C650        C  0.86544575  0.78817191  0.64606710     0.77500
C651        C  0.78185891  0.86277777  0.64011046     0.77900
C652        C  0.75957116  0.83883374  0.74876413     0.79000
C653        C  0.75713355  0.76497059  0.67722832     0.78100
Zn654      Zn  0.17491226  0.18100975  0.71673637     1.49700
Zn655      Zn  0.17293747  0.22783110  0.66979897     1.49400
Zn656      Zn  0.22008742  0.18186694  0.66997348     1.49100
Zn657      Zn  0.15660139  0.16302514  0.65353630     1.49500
O658        O  0.18053182  0.18819935  0.67701637    -1.83200
O659        O  0.16221350  0.21455590  0.73798510    -0.73800
O660        O  0.20680541  0.24925316  0.65551642    -0.73600
O661        O  0.24259172  0.16951615  0.70332152    -0.73100
O662        O  0.16300149  0.24811651  0.70564095    -0.73800
O663        O  0.21039366  0.17033557  0.73680717    -0.73400
O664        O  0.23986354  0.21644942  0.65821523    -0.74000
O665        O  0.18242137  0.14141215  0.62492118    -0.73400
O666        O  0.14103586  0.23133211  0.64328659    -0.74100
O667        O  0.22441525  0.15480417  0.64008158    -0.73500
O668        O  0.12753657  0.18795979  0.63178769    -0.74000
O669        O  0.13568557  0.13457679  0.68013305    -0.73900
O670        O  0.14824274  0.15061604  0.72232976    -0.73700
C671        C  0.16039480  0.24019055  0.73104459     0.78100
C672        C  0.23246924  0.24171604  0.65419807     0.78600
C673        C  0.23572882  0.16748564  0.72898125     0.77500
C674        C  0.20933841  0.14078538  0.62320269     0.77900
C675        C  0.12458384  0.21471552  0.63042765     0.79000
C676        C  0.13511500  0.13322207  0.70710090     0.78100
C677        C  0.06185398  0.07957813  0.80836080    -0.10900
C678        C  0.07664108  0.06460064  0.78760555     0.11700
C679        C  0.07744414  0.03484504  0.78892853    -0.02700
C680        C  0.06232039  0.02119297  0.81030966    -0.05500
C681        C  0.04590086  0.03607178  0.82983395    -0.16200
C682        C  0.04554861  0.06582975  0.82890988     0.02700
C683        C  0.09077039  0.08056501  0.76454901     0.12600
C684        C  0.09334085  0.01738818  0.76735444     0.63300
H685        H  0.06221376  0.99847750  0.81131390     0.12700
C686        C  0.02681170  0.08295281  0.84832477     0.55400
H687        H  0.06244694  0.10228198  0.80773067     0.08500
C688        C  0.07556111  0.09517642  0.74324671    -0.05400
C689        C  0.09061400  0.11065326  0.72285269    -0.06100
C690        C  0.12010849  0.11092054  0.72264760    -0.15700
C691        C  0.13507703  0.09427171  0.74240452    -0.01300
C692        C  0.12019796  0.08051810  0.76377657    -0.08800
C693        C  0.04364213  0.09462277  0.74215662     0.65500
H694        H  0.07949074  0.12368960  0.70782024     0.10900
C695        C  0.16682551  0.09085072  0.74075868     0.63900
H696        H  0.13161026  0.06987665  0.78038082     0.08300
F697        F  0.02725573  0.11124144  0.84168399    -0.19200
F698        F  0.03578747  0.08007531  0.87582296    -0.15400
F699        F  0.99929425  0.07385749  0.84611578    -0.18900
F700        F  0.12196457  0.02095587  0.77072446    -0.22300
F701        F  0.08563064  0.02540580  0.74046145    -0.23800
F702        F  0.08776668  0.98902704  0.77012507    -0.17800
F703        F  0.18006635  0.11508531  0.74955473    -0.20200
F704        F  0.17455503  0.08503194  0.71332133    -0.21400
F705        F  0.17622070  0.06894234  0.75749000    -0.18600
F706        F  0.03336336  0.10722432  0.71798228    -0.18700
F707        F  0.03256541  0.10881368  0.76494767    -0.22500
F708        F  0.03436397  0.06714330  0.74254245    -0.24100
C709        C  0.92468460  0.96993059  0.79916908    -0.10900
C710        C  0.93006163  0.94149811  0.79342808     0.11700
C711        C  0.95297731  0.92790004  0.80699980    -0.02700
C712        C  0.96993442  0.94342453  0.82575252    -0.05500
C713        C  0.96456133  0.97185315  0.83138629    -0.16200
C714        C  0.94134665  0.98528214  0.81828251     0.02700
C715        C  0.91050849  0.92599957  0.77429608     0.12600
C716        C  0.95959926  0.89716494  0.80149212     0.63300
H717        H  0.98805782  0.93369505  0.83561187     0.12700
C718        C  0.93415328  0.01566991  0.82478249     0.55400
H719        H  0.90720471  0.98001017  0.78854037     0.08500
C720        C  0.88389309  0.91676256  0.78366949    -0.05400
C721        C  0.86746205  0.90015441  0.76559149    -0.06100
C722        C  0.87694167  0.89151586  0.73885906    -0.15700
C723        C  0.90331843  0.90141864  0.72916401    -0.01300
C724        C  0.91934938  0.91912022  0.74691284    -0.08800
C725        C  0.87328561  0.92347928  0.81309633     0.65500
H726        H  0.84714158  0.89291894  0.77273400     0.10900
C727        C  0.91524440  0.89217782  0.70106996     0.63900
H728        H  0.93955980  0.92686519  0.73999794     0.08300
F729        F  0.93148627  0.01912914  0.85354161    -0.19200
F730        F  0.90909303  0.02384950  0.81232005    -0.15400
F731        F  0.95516468  0.03308265  0.81503100    -0.18900
F732        F  0.96765042  0.89361530  0.77380584    -0.22300
F733        F  0.93613341  0.88093465  0.80671096    -0.23800
F734        F  0.98123563  0.88747160  0.81846496    -0.17800
F735        F  0.89824247  0.90184469  0.67949723    -0.20200
F736        F  0.91670084  0.86317805  0.70004781    -0.21400
F737        F  0.94206249  0.90251271  0.69676163    -0.18600
F738        F  0.84774686  0.91077658  0.81861372    -0.18700
F739        F  0.86964581  0.95211239  0.81607815    -0.22500
F740        F  0.89244744  0.91410378  0.83293321    -0.24100
C741        C  0.07813757  0.69643126  0.44296880    -0.10900
C742        C  0.06398612  0.71210147  0.42229393     0.11700
C743        C  0.03447686  0.70926464  0.41916938    -0.02700
C744        C  0.01995921  0.69152656  0.43779014    -0.05500
C745        C  0.03399246  0.67669196  0.45913592    -0.16200
C746        C  0.06353931  0.67907935  0.46189051     0.02700
C747        C  0.08076871  0.73128141  0.40424738     0.12600
C748        C  0.01833551  0.72534771  0.39671077     0.63300
H749        H  0.99730999  0.68952738  0.43628158     0.12700
C750        C  0.07938673  0.66409654  0.48526088     0.55400
H751        H  0.10076369  0.69838363  0.44449133     0.08500
C752        C  0.09115951  0.75736669  0.41415241    -0.05400
C753        C  0.10828911  0.77363784  0.39630224    -0.06100
C754        C  0.11523453  0.76448765  0.36912864    -0.15700
C755        C  0.10297400  0.73934067  0.35861709    -0.01300
C756        C  0.08686652  0.72270129  0.37679557    -0.08800
C757        C  0.08508547  0.76743054  0.44381554     0.65500
H758        H  0.11771384  0.79278345  0.40404780     0.10900
C759        C  0.10707061  0.72905723  0.32861937     0.63900
H760        H  0.07905732  0.70260651  0.36960744     0.08300
F761        F  0.10760046  0.67116028  0.48561728    -0.19200
F762        F  0.07741028  0.63539195  0.48159461    -0.15400
F763        F  0.06808377  0.67129192  0.51105207    -0.18900
F764        F  0.02672002  0.71659320  0.37031292    -0.22300
F765        F  0.02335775  0.75379042  0.39940496    -0.23800
F766        F  0.98961952  0.72114047  0.39875981    -0.17800
F767        F  0.13037780  0.71164734  0.32745465    -0.20200
F768        F  0.11052051  0.75120492  0.31013480    -0.21400
F769        F  0.08380442  0.71409361  0.31962877    -0.18600
F770        F  0.09424929  0.79465229  0.44806158    -0.18700
F771        F  0.09868107  0.75027668  0.46298560    -0.22500
F772        F  0.05647260  0.76678304  0.44887948    -0.24100
C773        C  0.96727949  0.71408865  0.58119872    -0.10900
C774        C  0.93957308  0.72186454  0.57443334     0.11700
C775        C  0.92684095  0.71068888  0.54988050    -0.02700
C776        C  0.94205764  0.69130425  0.53337538    -0.05500
C777        C  0.96952607  0.68309066  0.54045811    -0.16200
C778        C  0.98256379  0.69485469  0.56455395     0.02700
C779        C  0.92344313  0.73983291  0.59456520     0.12600
C780        C  0.89732186  0.71936690  0.54117366     0.63300
H781        H  0.93277710  0.68268620  0.51438570     0.12700
C782        C  0.01250581  0.68705696  0.57251356     0.55400
H783        H  0.97674909  0.72306402  0.59992029     0.08500
C784        C  0.91019896  0.72795731  0.61826587    -0.05400
C785        C  0.89266601  0.74501796  0.63483266    -0.06100
C786        C  0.88766658  0.77365216  0.62873774    -0.15700
C787        C  0.90262723  0.78601343  0.60602515    -0.01300
C788        C  0.92028292  0.76873158  0.58929742    -0.08800
C789        C  0.91429839  0.69716557  0.62583703     0.65500
H790        H  0.88232007  0.73569642  0.65277615     0.10900
C791        C  0.89966152  0.81692945  0.59894174     0.63900
H792        H  0.93126308  0.77747120  0.57141635     0.08300
F793        F  0.01480644  0.65824892  0.57538524    -0.19200
F794        F  0.02062103  0.69928133  0.59765907    -0.15400
F795        F  0.03075184  0.69600298  0.55182039    -0.18900
F796        F  0.89655566  0.74792853  0.53607334    -0.22300
F797        F  0.87846896  0.71304044  0.56231118    -0.23800
F798        F  0.88868997  0.70574382  0.51694715    -0.17800
F799        F  0.91574462  0.82432342  0.57588919    -0.20200
F800        F  0.90852189  0.83296760  0.62151718    -0.21400
F801        F  0.87187965  0.82314113  0.59280381    -0.18600
F802        F  0.89836185  0.68944706  0.64886147    -0.18700
F803        F  0.94223081  0.69217344  0.63229299    -0.22500
F804        F  0.90651240  0.68028433  0.60350458    -0.24100
C805        C  0.94872612  0.08290915  0.19434299    -0.10900
C806        C  0.92825994  0.06753428  0.20883124     0.11700
C807        C  0.92534458  0.03842501  0.20365148    -0.02700
C808        C  0.94491179  0.02512147  0.18588763    -0.05500
C809        C  0.96631701  0.04026795  0.17254290    -0.16200
C810        C  0.96789620  0.06972478  0.17608074     0.02700
C811        C  0.91017740  0.08277079  0.22920479     0.12600
C812        C  0.90160339  0.02164314  0.21663897     0.63300
H813        H  0.94394026  0.00266282  0.18251845     0.12700
C814        C  0.99014113  0.08696317  0.16120485     0.55400
H815        H  0.94988571  0.10531434  0.19798362     0.08500
C816        C  0.91889507  0.08783757  0.25728814    -0.05400
C817        C  0.90114941  0.10353459  0.27514448    -0.06100
C818        C  0.87567672  0.11479909  0.26534675    -0.15700
C819        C  0.86758476  0.11063290  0.23689398    -0.01300
C820        C  0.88482292  0.09416999  0.21941715    -0.08800
C821        C  0.94731162  0.07764231  0.26787886     0.65500
H822        H  0.90735953  0.10781530  0.29663931     0.10900
C823        C  0.84166873  0.12491121  0.22462046     0.63900
H824        H  0.87910961  0.09072897  0.19763008     0.08300
F825        F  0.98838877  0.11513601  0.16818480    -0.19200
F826        F  0.98671567  0.08467052  0.13242153    -0.15400
F827        F  0.01663824  0.07737151  0.16856326    -0.18900
F828        F  0.87606426  0.03223088  0.20749393    -0.22300
F829        F  0.90277750  0.02333147  0.24562423    -0.23800
F830        F  0.90295178  0.99357092  0.20917137    -0.17800
F831        F  0.84403696  0.15369903  0.22763652    -0.20200
F832        F  0.81782974  0.11586222  0.23842792    -0.21400
F833        F  0.83836272  0.11911106  0.19626551    -0.18600
F834        F  0.95116362  0.08362985  0.29610706    -0.18700
F835        F  0.96848596  0.09065461  0.25293614    -0.22500
F836        F  0.94969171  0.04892874  0.26440889    -0.24100
C837        C  0.08420458  0.97476273  0.21586655    -0.10900
C838        C  0.08246084  0.94536544  0.21581590     0.11700
C839        C  0.06448297  0.93194003  0.19616904    -0.02700
C840        C  0.04866684  0.94851200  0.17726431    -0.05500
C841        C  0.04994737  0.97792602  0.17767385    -0.16200
C842        C  0.06847494  0.99136181  0.19689385     0.02700
C843        C  0.10048285  0.92891267  0.23572751     0.12600
C844        C  0.06149495  0.90021716  0.19568614     0.63300
H845        H  0.03424497  0.93863917  0.16267219     0.12700
C846        C  0.07161745  0.02308470  0.19779032     0.55400
H847        H  0.09791439  0.98469714  0.23109925     0.08500
C848        C  0.12889178  0.92269617  0.22945843    -0.05400
C849        C  0.14361987  0.90382089  0.24687535    -0.06100
C850        C  0.13111212  0.89098350  0.27038725    -0.15700
C851        C  0.10332350  0.89892295  0.27793108    -0.01300
C852        C  0.08848496  0.91792546  0.26038038    -0.08800
C853        C  0.14340615  0.93540591  0.20403937     0.65500
H854        H  0.16508119  0.89818892  0.24168048     0.10900
C855        C  0.08897441  0.88658425  0.30352498     0.63900
H856        H  0.06693169  0.92356974  0.26514565     0.08300
F857        F  0.09671374  0.03074877  0.21041190    -0.19200
F858        F  0.04981199  0.03476152  0.21304800    -0.15400
F859        F  0.07144819  0.03415046  0.17089017    -0.18900
F860        F  0.04954159  0.89126643  0.22057334    -0.22300
F861        F  0.08756559  0.88765716  0.19259933    -0.23800
F862        F  0.04455809  0.89131623  0.17373299    -0.17800
F863        F  0.10363992  0.89398720  0.32753387    -0.20200
F864        F  0.08815312  0.85764738  0.30131637    -0.21400
F865        F  0.06163087  0.89627998  0.30632200    -0.18600
F866        F  0.17072579  0.92568305  0.20115336    -0.18700
F867        F  0.14439718  0.96426263  0.20685402    -0.22500
F868        F  0.12886305  0.92872578  0.17974888    -0.24100
C869        C  0.06772711  0.31008146  0.55498855    -0.10900
C870        C  0.05255047  0.28728965  0.56581128     0.11700
C871        C  0.02286857  0.28720517  0.56352974    -0.02700
C872        C  0.00947869  0.30976073  0.54980053    -0.05500
C873        C  0.02463575  0.33206820  0.53776508    -0.16200
C874        C  0.05439271  0.33240283  0.54060153     0.02700
C875        C  0.06824490  0.26501013  0.58140199     0.12600
C876        C  0.00539796  0.26311222  0.57495905     0.63300
H877        H  0.98680159  0.30977913  0.54754334     0.12700
C878        C  0.07223787  0.35570581  0.52822522     0.55400
H879        H  0.09031710  0.31019432  0.55796028     0.08500
C880        C  0.08530978  0.24454558  0.56787969    -0.05400
C881        C  0.10193926  0.22634285  0.58459184    -0.06100
C882        C  0.10159607  0.22801946  0.61406414    -0.15700
C883        C  0.08264710  0.24680203  0.62737567    -0.01300
C884        C  0.06686414  0.26547269  0.61079085    -0.08800
C885        C  0.08658215  0.24251827  0.53604572     0.65500
H886        H  0.11656982  0.21191056  0.57476961     0.10900
C887        C  0.07918639  0.24726302  0.65911701     0.63900
H888        H  0.05389104  0.28130997  0.62077622     0.08300
F889        F  0.10066558  0.34948073  0.52977238    -0.19200
F890        F  0.06776926  0.38029572  0.54297550    -0.15400
F891        F  0.06549255  0.35978836  0.50021033    -0.18900
F892        F  0.00704711  0.26248521  0.60395701    -0.22300
F893        F  0.01517925  0.23789574  0.56432263    -0.23800
F894        F  0.97731131  0.26570812  0.56763085    -0.17800
F895        F  0.10258055  0.25900876  0.67168072    -0.20200
F896        F  0.07572148  0.22016523  0.66894728    -0.21400
F897        F  0.05584368  0.26277757  0.66709386    -0.18600
F898        F  0.10182467  0.21926679  0.52736150    -0.18700
F899        F  0.09926584  0.26617599  0.52514947    -0.22500
F900        F  0.05971723  0.24031321  0.52509673    -0.24100
C901        C  0.95752599  0.30705831  0.41777836    -0.10900
C902        C  0.92975727  0.29986606  0.42469067     0.11700
C903        C  0.91624173  0.31398443  0.44727305    -0.02700
C904        C  0.93175914  0.33337506  0.46341622    -0.05500
C905        C  0.95978950  0.33972270  0.45701208    -0.16200
C906        C  0.97242540  0.32758459  0.43300861     0.02700
C907        C  0.91511878  0.27781502  0.40778124     0.12600
C908        C  0.88577608  0.30817907  0.45477796     0.63300
H909        H  0.92248970  0.34283765  0.48193644     0.12700
C910        C  0.00145709  0.33664436  0.42356805     0.55400
H911        H  0.96766198  0.29615033  0.40057710     0.08500
C912        C  0.90587843  0.28281200  0.37984923    -0.05400
C913        C  0.89038472  0.26179549  0.36598599    -0.06100
C914        C  0.88288445  0.23660590  0.37937138    -0.15700
C915        C  0.89234203  0.23144171  0.40710252    -0.01300
C916        C  0.90909590  0.25187582  0.42056961    -0.08800
C917        C  0.91130984  0.31059656  0.36507768     0.65500
H918        H  0.88292869  0.26537800  0.34473893     0.10900
C919        C  0.88462428  0.20461468  0.42232304     0.63900
H920        H  0.91681641  0.24819156  0.44169000     0.08300
F921        F  0.00848097  0.32516531  0.39776701    -0.19200
F922        F  0.02144050  0.32833907  0.44304124    -0.15400
F923        F  0.00206623  0.36557476  0.42098213    -0.18900
F924        F  0.88357840  0.28194176  0.46694633    -0.22300
F925        F  0.86912454  0.30920128  0.43090270    -0.23800
F926        F  0.87540723  0.32778092  0.47362488    -0.17800
F927        F  0.89858979  0.20215408  0.44777985    -0.20200
F928        F  0.89160833  0.18163539  0.40593656    -0.21400
F929        F  0.85604304  0.20438150  0.42758563    -0.18600
F930        F  0.89787603  0.31205709  0.33925246    -0.18700
F931        F  0.93976824  0.31394202  0.36045372    -0.22500
F932        F  0.90154666  0.33256994  0.38142294    -0.24100
C933        C  0.70678272  0.92163781  0.53626210    -0.10900
C934        C  0.70818216  0.92558429  0.56548007     0.11700
C935        C  0.68940858  0.94490779  0.57840986    -0.02700
C936        C  0.67058761  0.96040438  0.56134194    -0.05500
C937        C  0.66960890  0.95678858  0.53204936    -0.16200
C938        C  0.68731347  0.93640690  0.51936783     0.02700
C939        C  0.72881572  0.90845017  0.58209948     0.12600
C940        C  0.68911954  0.94900478  0.61010266     0.63300
H941        H  0.65682052  0.97596746  0.57068162     0.12700
C942        C  0.68519709  0.92980686  0.48820986     0.55400
H943        H  0.72122099  0.90683670  0.52671334     0.08500
C944        C  0.72418963  0.87965571  0.58780834    -0.05400
C945        C  0.74338415  0.86527883  0.60523592    -0.06100
C946        C  0.76684517  0.87857450  0.61744935    -0.15700
C947        C  0.77198296  0.90712521  0.61101581    -0.01300
C948        C  0.75308108  0.92145131  0.59293707    -0.08800
C949        C  0.69886014  0.86417426  0.57595748     0.65500
H950        H  0.73976324  0.84338367  0.61014526     0.10900
C951        C  0.79637198  0.92270703  0.62429890     0.63900
H952        H  0.75659396  0.94330042  0.58779987     0.08300
F953        F  0.65741743  0.92503784  0.48099929    -0.19200
F954        F  0.70053072  0.90605153  0.48121680    -0.15400
F955        F  0.69534018  0.95199896  0.47259237    -0.18900
F956        F  0.71444839  0.96006808  0.61898240    -0.22300
F957        F  0.68482748  0.92352374  0.62331525    -0.23800
F958        F  0.66793540  0.96718204  0.61845106    -0.17800
F959        F  0.79645384  0.95080088  0.61687629    -0.20200
F960        F  0.82146502  0.91086941  0.61556284    -0.21400
F961        F  0.79459359  0.92108879  0.65329612    -0.18600
F962        F  0.69633903  0.83750262  0.58722587    -0.18700
F963        F  0.70155841  0.86147209  0.54715516    -0.22500
F964        F  0.67437692  0.87874424  0.58191057    -0.24100
C965        C  0.69401701  0.07907532  0.46253557    -0.10900
C966        C  0.69604379  0.07474596  0.43342650     0.11700
C967        C  0.68037645  0.05285356  0.42067680    -0.02700
C968        C  0.66426863  0.03503377  0.43793876    -0.05500
C969        C  0.66317217  0.03873535  0.46719194    -0.16200
C970        C  0.67736327  0.06168821  0.47965421     0.02700
C971        C  0.71639392  0.09213009  0.41727446     0.12600
C972        C  0.68085938  0.04821638  0.38905471     0.63300
H973        H  0.65294593  0.01755105  0.42883349     0.12700
C974        C  0.67436102  0.06808029  0.51078123     0.55400
H975        H  0.70603287  0.09598876  0.47182282     0.08500
C976        C  0.70989489  0.11957493  0.40774585    -0.05400
C977        C  0.73022687  0.13420785  0.39195220    -0.06100
C978        C  0.75687692  0.12257331  0.38627346    -0.15700
C979        C  0.76384994  0.09589668  0.39724787    -0.01300
C980        C  0.74335646  0.08097401  0.41245791    -0.08800
C981        C  0.68204011  0.13359939  0.41495290     0.65500
H982        H  0.72545875  0.15493763  0.38383256     0.10900
C983        C  0.79317446  0.08389258  0.39371362     0.63900
H984        H  0.74819717  0.06033069  0.42075335     0.08300
F985        F  0.68825157  0.09247062  0.51822855    -0.19200
F986        F  0.68537701  0.04638444  0.52668164    -0.15400
F987        F  0.64619756  0.07144923  0.51723075    -0.18900
F988        F  0.70788511  0.04206147  0.38033677    -0.22300
F989        F  0.67160888  0.07213413  0.37537873    -0.23800
F990        F  0.66362494  0.02624509  0.38102817    -0.17800
F991        F  0.79665946  0.05910756  0.40851212    -0.20200
F992        F  0.81270476  0.10299308  0.40358941    -0.21400
F993        F  0.79830174  0.07852496  0.36562260    -0.18600
F994        F  0.67896776  0.15922347  0.40153888    -0.18700
F995        F  0.68068949  0.13817636  0.44362757    -0.22500
F996        F  0.65975973  0.11679642  0.40702330    -0.24100
C997        C  0.23547895  0.08347556  0.57267672    -0.10900
C998        C  0.26361710  0.09196425  0.56965317     0.11700
C999        C  0.27231911  0.11795850  0.58086772    -0.02700
C1000       C  0.25279544  0.13393411  0.59598740    -0.05500
C1001       C  0.22525297  0.12446418  0.60155320    -0.16200
C1002       C  0.21602628  0.09919019  0.58880207     0.02700
C1003       C  0.28403724  0.07298810  0.55555831     0.12600
C1004       C  0.30234930  0.12853547  0.57768856     0.63300
H1005       H  0.25944903  0.15392357  0.60447888     0.12700
C1006       C  0.18633083  0.08844497  0.59267211     0.55400
H1007       H  0.22918195  0.06387827  0.56304132     0.08500
C1008       C  0.29583763  0.04939531  0.56950593    -0.05400
C1009       C  0.31629665  0.03327665  0.55543750    -0.06100
C1010       C  0.32529236  0.04028653  0.52829200    -0.15700
C1011       C  0.31408153  0.06424849  0.51470628    -0.01300
C1012       C  0.29320611  0.08001720  0.52846386    -0.08800
C1013       C  0.28663368  0.04112421  0.59893057     0.65500
H1014       H  0.32479318  0.01448032  0.56512057     0.10900
C1015       C  0.32424132  0.07296184  0.48579284     0.63900
H1016       H  0.28386719  0.09809250  0.51820465     0.08300
F1017       F  0.18206699  0.06330034  0.57871810    -0.19200
F1018       F  0.16737697  0.10785601  0.58207734    -0.15400
F1019       F  0.18108098  0.08410525  0.62093227    -0.18900
F1020       F  0.30771225  0.13456915  0.54979868    -0.22300
F1021       F  0.32122455  0.10839689  0.58697810    -0.23800
F1022       F  0.30702990  0.15273773  0.59311948    -0.17800
F1023       F  0.31739057  0.05260920  0.46625524    -0.20200
F1024       F  0.35312093  0.07632231  0.48633573    -0.21400
F1025       F  0.31225575  0.09807961  0.47722119    -0.18600
F1026       F  0.30230328  0.01886190  0.60933539    -0.18700
F1027       F  0.25872219  0.03314543  0.59851576    -0.22500
F1028       F  0.28984892  0.06354354  0.61712422    -0.24100
C1029       C  0.30408206  0.94111640  0.42332349    -0.10900
C1030       C  0.28724164  0.92275617  0.43900956     0.11700
C1031       C  0.29082972  0.92088416  0.46848497    -0.02700
C1032       C  0.31009979  0.93897226  0.48159123    -0.05500
C1033       C  0.32635556  0.95793777  0.46603611    -0.16200
C1034       C  0.32369900  0.95892817  0.43639965     0.02700
C1035       C  0.26775012  0.90410455  0.42350672     0.12600
C1036       C  0.27474918  0.89960126  0.48590186     0.63300
H1037       H  0.31256109  0.93865020  0.50423607     0.12700
C1038       C  0.34089410  0.97918528  0.41883886     0.55400
H1039       H  0.30155461  0.94143540  0.40068698     0.08500
C1040       C  0.24100902  0.91311627  0.41375365    -0.05400
C1041       C  0.22529515  0.89493914  0.39640338    -0.06100
C1042       C  0.23578668  0.86848943  0.38857050    -0.15700
C1043       C  0.26169406  0.85883872  0.40025608    -0.01300
C1044       C  0.27743404  0.87717754  0.41702192    -0.08800
C1045       C  0.22957182  0.94202647  0.42099810     0.65500
H1046       H  0.20545943  0.90188847  0.38754004     0.10900
C1047       C  0.27341901  0.82957001  0.39482117     0.63900
H1048       H  0.29802993  0.87086936  0.42458363     0.08300
F1049       F  0.33464387  0.97701105  0.39046981    -0.19200
F1050       F  0.36922986  0.97354291  0.42222192    -0.15400
F1051       F  0.33543888  0.00646581  0.42720244    -0.18900
F1052       F  0.28287527  0.87275813  0.47835849    -0.22300
F1053       F  0.24616810  0.90253557  0.48144890    -0.23800
F1054       F  0.27983002  0.90283528  0.51439310    -0.17800
F1055       F  0.28620714  0.82866511  0.36874914    -0.20200
F1056       F  0.25212593  0.80988985  0.39586752    -0.21400
F1057       F  0.29329487  0.82212219  0.41484784    -0.18600
F1058       F  0.20291079  0.94626944  0.40999034    -0.18700
F1059       F  0.24704862  0.96249324  0.41027720    -0.22500
F1060       F  0.22799548  0.94510610  0.44984507    -0.24100
C1061       C  0.54435811  0.57713461  0.80589137    -0.10900
C1062       C  0.56113129  0.56315836  0.78601110     0.11700
C1063       C  0.56157267  0.53349624  0.78518253    -0.02700
C1064       C  0.54477590  0.51875616  0.80427898    -0.05500
C1065       C  0.52737616  0.53259149  0.82374007    -0.16200
C1066       C  0.52707447  0.56232251  0.82473681     0.02700
C1067       C  0.58019733  0.58011396  0.76830674     0.12600
C1068       C  0.57957767  0.51744801  0.76418259     0.63300
H1069       H  0.54486548  0.49604726  0.80404437     0.12700
C1070       C  0.50828747  0.57837203  0.84497976     0.55400
H1071       H  0.54509124  0.59984340  0.80658462     0.08500
C1072       C  0.57106475  0.59452602  0.74387609    -0.05400
C1073       C  0.59049248  0.61145588  0.72932419    -0.06100
C1074       C  0.61822268  0.61469148  0.73902436    -0.15700
C1075       C  0.62750570  0.59908833  0.76287394    -0.01300
C1076       C  0.60809110  0.58237576  0.77723123    -0.08800
C1077       C  0.54073049  0.59290344  0.73400535     0.65500
H1078       H  0.58372779  0.62354276  0.71123348     0.10900
C1079       C  0.65771377  0.59987723  0.77352306     0.63900
H1080       H  0.61440108  0.57130348  0.79613732     0.08300
F1081       F  0.50898279  0.60699752  0.84001932    -0.19200
F1082       F  0.51708476  0.57391900  0.87231904    -0.15400
F1083       F  0.48075463  0.56955730  0.84208893    -0.18900
F1084       F  0.60772748  0.52229295  0.76944010    -0.22300
F1085       F  0.57325204  0.52601266  0.73712872    -0.23800
F1086       F  0.57512243  0.48877823  0.76570506    -0.17800
F1087       F  0.66258366  0.62470652  0.78775848    -0.20200
F1088       F  0.67620177  0.59754032  0.75121933    -0.21400
F1089       F  0.66333812  0.57797157  0.79187331    -0.18600
F1090       F  0.53679214  0.60656226  0.70859966    -0.18700
F1091       F  0.52336179  0.60531621  0.75372187    -0.22500
F1092       F  0.53285997  0.56521669  0.73053828    -0.24100
C1093       C  0.46297913  0.42494507  0.77899284    -0.10900
C1094       C  0.43370552  0.42263759  0.77969565     0.11700
C1095       C  0.41860957  0.43367499  0.80292066    -0.02700
C1096       C  0.43322582  0.44964777  0.82319026    -0.05500
C1097       C  0.46246144  0.45323201  0.82161830    -0.16200
C1098       C  0.47779750  0.43899821  0.80024126     0.02700
C1099       C  0.41976177  0.40621634  0.75715589     0.12600
C1100       C  0.38733690  0.42829491  0.80629187     0.63300
H1101       H  0.42186130  0.46008883  0.83993179     0.12700
C1102       C  0.50970490  0.43782448  0.79890734     0.55400
H1103       H  0.47444557  0.41505507  0.76193918     0.08500
C1104       C  0.40880685  0.41871925  0.73237602    -0.05400
C1105       C  0.39259721  0.40207930  0.71389781    -0.06100
C1106       C  0.38862476  0.37334917  0.71901645    -0.15700
C1107       C  0.40329554  0.36032061  0.74161926    -0.01300
C1108       C  0.41786517  0.37719076  0.76081077    -0.08800
C1109       C  0.41451041  0.44927942  0.72553353     0.65500
H1110       H  0.38189154  0.41160997  0.69616290     0.10900
C1111       C  0.40391271  0.32883025  0.74674567     0.63900
H1112       H  0.42768843  0.36762371  0.77907927     0.08300
F1113       F  0.51887952  0.45399649  0.77662251    -0.19200
F1114       F  0.51829580  0.41037021  0.79463116    -0.15400
F1115       F  0.52246714  0.44701716  0.82336961    -0.18900
F1116       F  0.38260471  0.39971535  0.80786298    -0.22300
F1117       F  0.37266412  0.43907622  0.78360162    -0.23800
F1118       F  0.37680476  0.44051985  0.83050881    -0.17800
F1119       F  0.43144012  0.32017923  0.75083539    -0.20200
F1120       F  0.39324502  0.31353671  0.72444362    -0.21400
F1121       F  0.38861040  0.32273536  0.77066074    -0.18600
F1122       F  0.40155801  0.45741633  0.70072098    -0.18700
F1123       F  0.44315950  0.45314701  0.72258275    -0.22500
F1124       F  0.40480737  0.46647590  0.74683267    -0.24100
C1125       C  0.21144254  0.46925315  0.56481862    -0.10900
C1126       C  0.20948870  0.43997283  0.56600590     0.11700
C1127       C  0.18578855  0.42643382  0.55406940    -0.02700
C1128       C  0.16680524  0.44248492  0.53779119    -0.05500
C1129       C  0.16993628  0.47164339  0.53493205    -0.16200
C1130       C  0.19148565  0.48549827  0.55022771     0.02700
C1131       C  0.23123182  0.42455976  0.58235521     0.12600
C1132       C  0.18010289  0.39551776  0.55938164     0.63300
H1133       H  0.14958296  0.43236207  0.52688590     0.12700
C1134       C  0.19313608  0.51729416  0.55190668     0.55400
H1135       H  0.22881860  0.47935961  0.57552625     0.08500
C1136       C  0.25546775  0.41251372  0.56978583    -0.05400
C1137       C  0.27390175  0.39640080  0.58671552    -0.06100
C1138       C  0.26940147  0.39361344  0.61574545    -0.15700
C1139       C  0.24747685  0.40933133  0.62863740    -0.01300
C1140       C  0.22815498  0.42364759  0.61155937    -0.08800
C1141       C  0.26187281  0.41696598  0.53884555     0.65500
H1142       H  0.29105945  0.38482052  0.57721501     0.10900
C1143       C  0.24336580  0.41143661  0.66025245     0.63900
H1144       H  0.21046132  0.43439886  0.62114887     0.08300
F1145       F  0.20506693  0.52790939  0.52771510    -0.19200
F1146       F  0.20936026  0.52580111  0.57455735    -0.15400
F1147       F  0.16652748  0.52863596  0.55533808    -0.18900
F1148       F  0.17795882  0.39084164  0.58799392    -0.22300
F1149       F  0.20166912  0.37916413  0.54884333    -0.23800
F1150       F  0.15524735  0.38691606  0.54690481    -0.17800
F1151       F  0.23964125  0.43929973  0.66768424    -0.20200
F1152       F  0.26618028  0.40137664  0.67533131    -0.21400
F1153       F  0.21963994  0.39658781  0.66786445    -0.18600
F1154       F  0.28697444  0.40433456  0.53116340    -0.18700
F1155       F  0.26398246  0.44539370  0.53342625    -0.34500
F1156       F  0.24073822  0.40591566  0.52229947    -0.24100
C1157       C  0.25144918  0.57131600  0.40107420    -0.10900
C1158       C  0.22278187  0.57213606  0.39369085     0.11700
C1159       C  0.21382446  0.58926184  0.37099211    -0.02700
C1160       C  0.23399708  0.60540833  0.35670305    -0.05500
C1161       C  0.26242018  0.60537717  0.36477556    -0.16200
C1162       C  0.27154934  0.58766212  0.38678035     0.02700
C1163       C  0.20232346  0.55737121  0.41210098     0.12600
C1164       C  0.18301796  0.59111473  0.36243343     0.63300
H1165       H  0.22755884  0.61905451  0.33961905     0.12700
C1166       C  0.30233085  0.58625069  0.39493180     0.55400
H1167       H  0.25781747  0.55834290  0.41868883     0.08500
C1168       C  0.19665195  0.52829426  0.40970652    -0.05400
C1169       C  0.17767906  0.51597301  0.42877880    -0.06100
C1170       C  0.16490868  0.53165114  0.45031739    -0.15700
C1171       C  0.17091990  0.56063889  0.45289119    -0.01300
C1172       C  0.18944337  0.57303337  0.43352722    -0.08800
C1173       C  0.21127231  0.51022741  0.38780057     0.65500
H1174       H  0.17344594  0.49366894  0.42776111     0.10900
C1175       C  0.15873907  0.57812819  0.47666878     0.63900
H1176       H  0.19456615  0.59510496  0.43526861     0.08300
F1177       F  0.30726338  0.56640239  0.41564054    -0.19200
F1178       F  0.31093690  0.61210708  0.40489054    -0.15400
F1179       F  0.31824434  0.57915490  0.37164907    -0.18900
F1180       F  0.16728639  0.60199445  0.38429484    -0.22300
F1181       F  0.17295992  0.56477349  0.35574376    -0.23800
F1182       F  0.17910083  0.60825776  0.33923081    -0.17800
F1183       F  0.16822423  0.60556088  0.47594836    -0.20200
F1184       F  0.16644218  0.56668605  0.50228034    -0.21400
F1185       F  0.12975017  0.57869419  0.47466296    -0.18600
F1186       F  0.20239186  0.48260059  0.38887576    -0.18700
F1187       F  0.23998651  0.51052879  0.39234429    -0.22500
F1188       F  0.20571791  0.52037049  0.36114595    -0.24100
C1189       C  0.53988273  0.80216097  0.58921334    -0.10900
C1190       C  0.56149984  0.78700249  0.57597957     0.11700
C1191       C  0.56498915  0.78913326  0.54650498    -0.02700
C1192       C  0.54737921  0.80753453  0.53136810    -0.05500
C1193       C  0.52612158  0.82317013  0.54462363    -0.16200
C1194       C  0.52180653  0.82008419  0.57393731     0.02700
C1195       C  0.58061179  0.76965098  0.59374605     0.12600
C1196       C  0.58696396  0.77179937  0.53109668     0.63300
H1197       H  0.54972127  0.80957221  0.50880923     0.12700
C1198       C  0.49768962  0.83482807  0.58877940     0.55400
H1199       H  0.53732238  0.79976621  0.61171106     0.08500
C1200       C  0.60341702  0.78183139  0.60826594    -0.05400
C1201       C  0.62028496  0.76457959  0.62531209    -0.06100
C1202       C  0.61517379  0.73554614  0.62876472    -0.15700
C1203       C  0.59280016  0.72320113  0.61322711    -0.01300
C1204       C  0.57560642  0.74071990  0.59632791    -0.08800
C1205       C  0.60961338  0.81311583  0.60625128     0.65500
H1206       H  0.63765665  0.77409251  0.63646290     0.10900
C1207       C  0.58689061  0.69194351  0.61425811     0.63900
H1208       H  0.55797708  0.73199294  0.58488175     0.08300
F1209       F  0.50093295  0.86357732  0.58693333    -0.19200
F1210       F  0.49643074  0.82773821  0.61699297    -0.15400
F1211       F  0.47247641  0.82731402  0.57638515    -0.18900
F1212       F  0.58164482  0.74355401  0.53489746    -0.22300
F1213       F  0.61348819  0.77782417  0.54132237    -0.23800
F1214       F  0.58679542  0.77713966  0.50247726    -0.17800
F1215       F  0.58122010  0.68387400  0.64159289    -0.20200
F1216       F  0.60996932  0.67725715  0.60431041    -0.21400
F1217       F  0.56399452  0.68471994  0.59777359    -0.18600
F1218       F  0.63409466  0.82025121  0.62032378    -0.18700
F1219       F  0.58774936  0.82827619  0.61797815    -0.22500
F1220       F  0.61268296  0.82096916  0.57845328    -0.24100
C1221       C  0.38587326  0.77745341  0.39912326    -0.10900
C1222       C  0.40833308  0.76717270  0.41523906     0.11700
C1223       C  0.41461028  0.73801341  0.41486493    -0.02700
C1224       C  0.39840780  0.72010608  0.39755874    -0.05500
C1225       C  0.37589409  0.73050140  0.38146449    -0.16200
C1226       C  0.36962429  0.75963911  0.38202539     0.02700
C1227       C  0.42408371  0.78743593  0.43319281     0.12600
C1228       C  0.43800298  0.72592955  0.43304159     0.63300
H1229       H  0.40302691  0.69785491  0.39661234     0.12700
C1230       C  0.34621547  0.77194327  0.36399231     0.55400
H1231       H  0.38125445  0.79971643  0.40001354     0.08500
C1232       C  0.44656233  0.80387031  0.42272723    -0.05400
C1233       C  0.46119593  0.82158917  0.44147403    -0.06100
C1234       C  0.45333476  0.82398279  0.46981546    -0.15700
C1235       C  0.42952843  0.80915367  0.47965787    -0.01300
C1236       C  0.41541379  0.79090237  0.46114302    -0.08800
C1237       C  0.45470225  0.80299568  0.39187027     0.65500
H1238       H  0.47914444  0.83349557  0.43425814     0.10900
C1239       C  0.41883935  0.81297601  0.50947646     0.63900
H1240       H  0.39756117  0.77888622  0.46841876     0.08300
F1241       F  0.34419435  0.80079388  0.36693482    -0.19200
F1242       F  0.32073042  0.76042745  0.37168915    -0.15400
F1243       F  0.35129728  0.76608221  0.33595860    -0.18900
F1244       F  0.43154512  0.72981921  0.46110629    -0.22300
F1245       F  0.46313588  0.73918824  0.42725562    -0.23800
F1246       F  0.44171181  0.69746002  0.42843780    -0.17800
F1247       F  0.39334241  0.79966499  0.51353812    -0.20200
F1248       F  0.41507017  0.84125456  0.51499402    -0.21400
F1249       F  0.43794023  0.80193678  0.52845019    -0.18600
F1250       F  0.47790855  0.81956929  0.38637976    -0.18700
F1251       F  0.43256138  0.81277481  0.37567430    -0.22500
F1252       F  0.46106188  0.77582553  0.38384866    -0.24100
C1253       C  0.41535845  0.19147049  0.54121714    -0.10900
C1254       C  0.42984609  0.21397018  0.55364006     0.11700
C1255       C  0.45947397  0.21533474  0.55098242    -0.02700
C1256       C  0.47364761  0.19356126  0.53671307    -0.05500
C1257       C  0.45922533  0.17101549  0.52416031    -0.16200
C1258       C  0.42942300  0.17050522  0.52554182     0.02700
C1259       C  0.41369332  0.23456185  0.57108644     0.12600
C1260       C  0.47610934  0.23973687  0.56304952     0.63300
H1261       H  0.49634007  0.19415992  0.53486931     0.12700
C1262       C  0.41242837  0.14899210  0.50926739     0.55400
H1263       H  0.39274788  0.19061870  0.54370880     0.08500
C1264       C  0.39582293  0.25556516  0.55945892    -0.05400
C1265       C  0.37977513  0.27264555  0.57780977    -0.06100
C1266       C  0.38119381  0.26927077  0.60710010    -0.15700
C1267       C  0.40043524  0.24945159  0.61861596    -0.01300
C1268       C  0.41594518  0.23216204  0.60034658    -0.08800
C1269       C  0.39358753  0.25980839  0.52789618     0.65500
H1270       H  0.36507632  0.28791774  0.56939513     0.10900
C1271       C  0.40471439  0.24642286  0.65017130     0.63900
H1272       H  0.42957703  0.21597478  0.60886007     0.08300
F1273       F  0.38382267  0.15421229  0.51103861    -0.19200
F1274       F  0.41741081  0.12241488  0.51976541    -0.15400
F1275       F  0.41986549  0.14977952  0.48116432    -0.18900
F1276       F  0.47667030  0.23800753  0.59204614    -0.22300
F1277       F  0.46391114  0.26496324  0.55523399    -0.23800
F1278       F  0.50359034  0.23974434  0.55349174    -0.17800
F1279       F  0.38190007  0.23303678  0.66202933    -0.20200
F1280       F  0.40784648  0.27261638  0.66233791    -0.21400
F1281       F  0.42857777  0.23083387  0.65639007    -0.18600
F1282       F  0.37640319  0.28237542  0.52118089    -0.18700
F1283       F  0.38246571  0.23614415  0.51536809    -0.22500
F1284       F  0.41993442  0.26486788  0.51682185    -0.24100
C1285       C  0.58945699  0.24269648  0.41953430    -0.10900
C1286       C  0.58232638  0.21814295  0.40475029     0.11700
C1287       C  0.59191838  0.21439785  0.37684745    -0.02700
C1288       C  0.60855184  0.23547326  0.36471097    -0.05500
C1289       C  0.61610940  0.25981839  0.37957517    -0.16200
C1290       C  0.60664446  0.26355789  0.40749139     0.02700
C1291       C  0.56420346  0.19701170  0.41881479     0.12600
C1292       C  0.58461761  0.18830741  0.35993313     0.63300
H1293       H  0.61616244  0.23294179  0.34340243     0.12700
C1294       C  0.61414791  0.28965356  0.42409228     0.55400
H1295       H  0.58154260  0.24526777  0.44071372     0.08500
C1296       C  0.57490110  0.17786543  0.43900637    -0.05400
C1297       C  0.55610138  0.15953353  0.45249154    -0.06100
C1298       C  0.52717754  0.15990929  0.44650782    -0.15700
C1299       C  0.51686779  0.17776224  0.42486642    -0.01300
C1300       C  0.53555727  0.19643404  0.41183778    -0.08800
C1301       C  0.60582232  0.17746742  0.44702024     0.65500
H1302       H  0.56360025  0.14595326  0.46919284     0.10900
C1303       C  0.48666228  0.17792739  0.41444691     0.63900
H1304       H  0.52763805  0.21090864  0.39607219     0.08300
F1305       F  0.60080780  0.29032310  0.44993181    -0.19200
F1306       F  0.60613721  0.31330320  0.40917325    -0.15400
F1307       F  0.64283714  0.29037972  0.42878438    -0.18900
F1308       F  0.55606602  0.18783655  0.35449457    -0.22300
F1309       F  0.59199766  0.16441842  0.37475868    -0.23800
F1310       F  0.59858984  0.18757398  0.33442502    -0.17800
F1311       F  0.48644093  0.17296398  0.38576723    -0.20200
F1312       F  0.47476832  0.20399103  0.41946230    -0.21400
F1313       F  0.47018664  0.15767390  0.42700081    -0.18600
F1314       F  0.61215502  0.15554584  0.46510774    -0.18700
F1315       F  0.61277770  0.20230950  0.46028515    -0.22500
F1316       F  0.62219573  0.17437769  0.42324784    -0.24100
C1317       C  0.78840209  0.58017806  0.54399993    -0.10900
C1318       C  0.78476938  0.57519009  0.57284050     0.11700
C1319       C  0.80045573  0.55350945  0.58609889    -0.02700
C1320       C  0.81935817  0.53744827  0.56985048    -0.05500
C1321       C  0.82300741  0.54251712  0.54105004    -0.16200
C1322       C  0.80757915  0.56436833  0.52786231     0.02700
C1323       C  0.76537801  0.59385738  0.58895779     0.12600
C1324       C  0.79704863  0.54727427  0.61722264     0.63300
H1325       H  0.83105598  0.52034859  0.57936005     0.12700
C1326       C  0.81176404  0.57114099  0.49696076     0.55400
H1327       H  0.77618925  0.59679330  0.53428685     0.08500
C1328       C  0.77416893  0.62046786  0.59861973    -0.05400
C1329       C  0.75600501  0.63596247  0.61599338    -0.06100
C1330       C  0.72923316  0.62606937  0.62391241    -0.15700
C1331       C  0.71953077  0.60041914  0.61225888    -0.01300
C1332       C  0.73798295  0.58463466  0.59501313    -0.08800
C1333       C  0.80279408  0.63234650  0.59089212     0.65500
H1334       H  0.76292826  0.65607594  0.62397876     0.10900
C1335       C  0.69028567  0.58944704  0.61833844     0.63900
H1336       H  0.73141645  0.56459732  0.58653428     0.08300
F1337       F  0.79610503  0.59428227  0.48869210    -0.19200
F1338       F  0.80370730  0.54860297  0.48054332    -0.15400
F1339       F  0.83982213  0.57688875  0.49208091    -0.18900
F1340       F  0.76969406  0.53921127  0.62259651    -0.22300
F1341       F  0.80318453  0.57093082  0.63288688    -0.23800
F1342       F  0.81475570  0.52585724  0.62602836    -0.17800
F1343       F  0.67045108  0.60817960  0.60812578    -0.20200
F1344       F  0.68675548  0.58619136  0.64701375    -0.21400
F1345       F  0.68557598  0.56372102  0.60565718    -0.18600
F1346       F  0.80755296  0.65815156  0.60339888    -0.18700
F1347       F  0.80442088  0.63595477  0.56210546    -0.22500
F1348       F  0.82390546  0.61422534  0.59947009    -0.24100
C1349       C  0.79733715  0.41934868  0.47203452    -0.10900
C1350       C  0.79084796  0.42665598  0.44415474     0.11700
C1351       C  0.80249276  0.45134120  0.43238325    -0.02700
C1352       C  0.82037850  0.46796150  0.44905685    -0.05500
C1353       C  0.82662769  0.46082445  0.47696993    -0.16200
C1354       C  0.81530465  0.43599703  0.48868994     0.02700
C1355       C  0.77202103  0.40796878  0.42755526     0.12600
C1356       C  0.79549454  0.46045364  0.40256586     0.63300
H1357       H  0.82892656  0.48729849  0.44074552     0.12700
C1358       C  0.82262131  0.42700929  0.51844698     0.55400
H1359       H  0.78815775  0.40043558  0.48062359     0.08500
C1360       C  0.78228839  0.38342709  0.41417033    -0.05400
C1361       C  0.76385262  0.36793082  0.39696620    -0.06100
C1362       C  0.73576810  0.37622932  0.39285105    -0.15700
C1363       C  0.72519628  0.39999075  0.40715248    -0.01300
C1364       C  0.74355198  0.41548267  0.42452597    -0.08800
C1365       C  0.81264086  0.37389443  0.41782272     0.65500
H1366       H  0.77138461  0.34940446  0.38607352     0.10900
C1367       C  0.69464056  0.40858277  0.40408875     0.63900
H1368       H  0.73599840  0.43398906  0.43542346     0.08300
F1369       F  0.80999456  0.40184770  0.52553629    -0.19200
F1370       F  0.81378466  0.44714338  0.53743986    -0.15400
F1371       F  0.85142934  0.42360819  0.52081099    -0.18900
F1372       F  0.76718883  0.46687335  0.40060933    -0.22300
F1373       F  0.80177928  0.43914076  0.38384880    -0.23800
F1374       F  0.81055122  0.48397845  0.39467563    -0.17800
F1375       F  0.68795074  0.43115880  0.42117065    -0.20200
F1376       F  0.67754511  0.38632968  0.41142252    -0.21400
F1377       F  0.68920859  0.41606606  0.37650865    -0.18600
F1378       F  0.81856997  0.35015314  0.40208652    -0.18700
F1379       F  0.81777802  0.36761892  0.44574957    -0.22500
F1380       F  0.83073536  0.39491247  0.40940286    -0.24100
C1381       C  0.43182456  0.53612426  0.20169204    -0.10900
C1382       C  0.43629606  0.56517849  0.20115068     0.11700
C1383       C  0.45700777  0.57660001  0.18317027    -0.02700
C1384       C  0.47217280  0.55831926  0.16558040    -0.05500
C1385       C  0.46762082  0.52927499  0.16606571    -0.16200
C1386       C  0.44711625  0.51780686  0.18428836     0.02700
C1387       C  0.41857433  0.58303147  0.21953558     0.12600
C1388       C  0.46339814  0.60780512  0.18296437     0.63300
H1389       H  0.48835019  0.56643227  0.15183659     0.12700
C1390       C  0.44105741  0.48650389  0.18503327     0.55400
H1391       H  0.41615504  0.52794145  0.21597175     0.08500
C1392       C  0.39064082  0.59010330  0.21203706    -0.05400
C1393       C  0.37481523  0.60669640  0.23061882    -0.06100
C1394       C  0.38592755  0.61624041  0.25630974    -0.15700
C1395       C  0.41382727  0.60888194  0.26393583    -0.01300
C1396       C  0.42965589  0.59208666  0.24535291    -0.08800
C1397       C  0.37752909  0.57993704  0.18466783     0.65500
H1398       H  0.35344498  0.61248687  0.22513047     0.10900
C1399       C  0.42651894  0.61790832  0.29179045     0.63900
H1400       H  0.45091262  0.58584552  0.25078157     0.08300
F1401       F  0.43528762  0.47699586  0.15815913    -0.19200
F1402       F  0.41814204  0.48042077  0.20184821    -0.15400
F1403       F  0.46396121  0.47202532  0.19564803    -0.18900
F1404       F  0.47341368  0.61589088  0.20903474    -0.22300
F1405       F  0.43929293  0.62292760  0.17681997    -0.23800
F1406       F  0.48356081  0.61452069  0.16313329    -0.17800
F1407       F  0.40895337  0.61019392  0.31358520    -0.20200
F1408       F  0.43006297  0.64669305  0.29207360    -0.21400
F1409       F  0.45253165  0.60556164  0.29641086    -0.18600
F1410       F  0.35088026  0.59102166  0.18054042    -0.18700
F1411       F  0.37524531  0.55102567  0.18506474    -0.22500
F1412       F  0.39402595  0.58778441  0.16211622    -0.24100
C1413       C  0.56044077  0.41824372  0.18649556    -0.10900
C1414       C  0.57818343  0.43276779  0.20502844     0.11700
C1415       C  0.58123833  0.46219633  0.20230143    -0.02700
C1416       C  0.56549152  0.47626207  0.18151022    -0.05500
C1417       C  0.54652470  0.46196344  0.16393941    -0.16200
C1418       C  0.54381132  0.43244451  0.16646085     0.02700
C1419       C  0.59370348  0.41644015  0.22677879     0.12600
C1420       C  0.60042826  0.47873259  0.22176797     0.63300
H1421       H  0.56691699  0.49886762  0.17954588     0.12700
C1422       C  0.52232476  0.41622709  0.14931366     0.55400
H1423       H  0.55904016  0.39564785  0.18856302     0.08500
C1424       C  0.58065501  0.40634609  0.25157742    -0.05400
C1425       C  0.59681583  0.39050704  0.27082592    -0.06100
C1426       C  0.62543546  0.38502689  0.26615864    -0.15700
C1427       C  0.63837350  0.39507981  0.24116521    -0.01300
C1428       C  0.62206742  0.41043016  0.22183460    -0.08800
C1429       C  0.54986437  0.41231226  0.25765784     0.65500
H1430       H  0.58720906  0.38211683  0.28964640     0.10900
C1431       C  0.66897532  0.38873400  0.23417161     0.63900
H1432       H  0.63130693  0.41786400  0.20243045     0.08300
F1433       F  0.52155043  0.38817180  0.15684784    -0.19200
F1434       F  0.52894482  0.41766122  0.12108496    -0.15400
F1435       F  0.49578240  0.42744186  0.15352638    -0.18900
F1436       F  0.62807422  0.47077512  0.21756195    -0.22300
F1437       F  0.59327990  0.47374789  0.24948482    -0.23800
F1438       F  0.59843761  0.50734958  0.21705013    -0.17800
F1439       F  0.67627655  0.39836752  0.20770912    -0.20200
F1440       F  0.67363108  0.36005155  0.23473329    -0.21400
F1441       F  0.68643148  0.40169594  0.25344987    -0.18600
F1442       F  0.54177818  0.40172956  0.28350580    -0.18700
F1443       F  0.53313370  0.40009733  0.23729006    -0.22500
F1444       F  0.54511833  0.44096009  0.25781777    -0.24100
C1445       C  0.42069326  0.02471175  0.70947284    -0.10900
C1446       C  0.42388865  0.05395978  0.71057433     0.11700
C1447       C  0.44434673  0.06710706  0.69349816    -0.02700
C1448       C  0.46070630  0.05040686  0.67537947    -0.05500
C1449       C  0.45771942  0.02114881  0.67438163    -0.16200
C1450       C  0.43735727  0.00792884  0.69158659     0.02700
C1451       C  0.40512079  0.07054913  0.72930585     0.12600
C1452       C  0.44940158  0.09855123  0.69499790     0.63300
H1453       H  0.47677556  0.05996990  0.66247206     0.12700
C1454       C  0.43284536  0.97640293  0.69061334     0.55400
H1455       H  0.40498550  0.01516744  0.72282055     0.08500
C1456       C  0.37789736  0.07883974  0.72057221    -0.05400
C1457       C  0.36237178  0.09692390  0.73796852    -0.06100
C1458       C  0.37323414  0.10739876  0.76345468    -0.15700
C1459       C  0.39998111  0.09797619  0.77285526    -0.01300
C1460       C  0.41536485  0.07931154  0.75561227    -0.08800
C1461       C  0.36560924  0.06932095  0.69260367     0.65500
H1462       H  0.34169623  0.10384226  0.73125012     0.10900
C1463       C  0.41280042  0.10847721  0.80012489     0.63900
H1464       H  0.43607655  0.07219542  0.76199908     0.08300
F1465       F  0.41071216  0.96820179  0.70757044    -0.19200
F1466       F  0.45670429  0.96248383  0.69976323    -0.15400
F1467       F  0.42686170  0.96827531  0.66333677    -0.18900
F1468       F  0.45924664  0.10555184  0.72144815    -0.22300
F1469       F  0.42468830  0.11304866  0.68983345    -0.23800
F1470       F  0.46909958  0.10721340  0.67547782    -0.17800
F1471       F  0.39650373  0.09992332  0.82256543    -0.20200
F1472       F  0.41422040  0.13747881  0.79977461    -0.21400
F1473       F  0.43975972  0.09814923  0.80419093    -0.18600
F1474       F  0.33909673  0.08053248  0.68789741    -0.18700
F1475       F  0.36332208  0.04041609  0.69225718    -0.22500
F1476       F  0.38279203  0.07768863  0.67077276    -0.24100
C1477       C  0.58396091  0.90647736  0.75217666    -0.10900
C1478       C  0.59864823  0.92080007  0.73105544     0.11700
C1479       C  0.62843833  0.92048838  0.73152371    -0.02700
C1480       C  0.64243559  0.90493044  0.75266945    -0.05500
C1481       C  0.62779735  0.88914207  0.77299369    -0.16200
C1482       C  0.59783410  0.89010394  0.77278028     0.02700
C1483       C  0.58198607  0.93588330  0.70886534     0.12600
C1484       C  0.64540624  0.93597185  0.70939325     0.63300
H1485       H  0.66518581  0.90416806  0.75276321     0.12700
C1486       C  0.58024165  0.87388390  0.79384366     0.55400
H1487       H  0.56121157  0.90755354  0.75178771     0.08500
C1488       C  0.56713990  0.92140140  0.68735984    -0.05400
C1489       C  0.54929573  0.93677010  0.66914576    -0.06100
C1490       C  0.54636142  0.96602111  0.67140322    -0.15700
C1491       C  0.56321916  0.98069062  0.69118071    -0.01300
C1492       C  0.58005380  0.96525916  0.71015301    -0.08800
C1493       C  0.56986800  0.88981341  0.68384953     0.65500
H1494       H  0.53654248  0.92589369  0.65373981     0.10900
C1495       C  0.56378666  0.01256204  0.69213094     0.63900
H1496       H  0.59137662  0.97610897  0.72665498     0.08300
F1497       F  0.58197771  0.84544741  0.78821199    -0.19200
F1498       F  0.55212774  0.88146800  0.79258434    -0.15400
F1499       F  0.58969881  0.87910238  0.82086887    -0.18900
F1500       F  0.64120247  0.96456620  0.71200010    -0.22300
F1501       F  0.63718297  0.92755865  0.68279270    -0.23800
F1502       F  0.67395485  0.93077947  0.71205485    -0.17800
F1503       F  0.53999117  0.02277508  0.70528949    -0.20200
F1504       F  0.56508591  0.02327407  0.66511973    -0.21400
F1505       F  0.58705371  0.02220947  0.70672560    -0.18600
F1506       F  0.55627458  0.88045793  0.65984840    -0.18700
F1507       F  0.55821003  0.87626760  0.70668286    -0.22500
F1508       F  0.59793001  0.88240932  0.68174047    -0.24100
C1509       C  0.80819853  0.08899707  0.04824446    -0.10900
C1510       C  0.79652748  0.07651883  0.07230054     0.11700
C1511       C  0.80579745  0.04948065  0.08070065    -0.02700
C1512       C  0.82608679  0.03554361  0.06428547    -0.05500
C1513       C  0.83740476  0.04779192  0.04002295    -0.16200
C1514       C  0.82891752  0.07517994  0.03211282     0.02700
C1515       C  0.77540955  0.09259153  0.08900344     0.12600
C1516       C  0.79365198  0.03497923  0.10636181     0.63300
H1517       H  0.83248044  0.01433915  0.06960026     0.12700
C1518       C  0.84193801  0.08967282  0.00692886     0.55400
H1519       H  0.80097062  0.10974623  0.04227616     0.08500
C1520       C  0.78366336  0.11421274  0.10770159    -0.05400
C1521       C  0.76294796  0.12762328  0.12393833    -0.06100
C1522       C  0.73454513  0.11996047  0.12239219    -0.15700
C1523       C  0.72613990  0.09845490  0.10377217    -0.01300
C1524       C  0.74681447  0.08524634  0.08700141    -0.08800
C1525       C  0.81424762  0.12289103  0.11079798     0.65500
H1526       H  0.76880583  0.14433635  0.13824177     0.10900
C1527       C  0.69562497  0.08966783  0.10182901     0.63900
H1528       H  0.74090801  0.06878854  0.07245189     0.08300
F1529       F  0.82988256  0.11572303  0.00201324    -0.19200
F1530       F  0.83842785  0.07351679  0.98302157    -0.15400
F1531       F  0.87036123  0.09346045  0.01178691    -0.18900
F1532       F  0.76592692  0.02798967  0.10123575    -0.22300
F1533       F  0.79495720  0.05250600  0.12950991    -0.23800
F1534       F  0.80821943  0.01060577  0.11287004    -0.17800
F1535       F  0.69170216  0.06859361  0.08215983    -0.20200
F1536       F  0.67920354  0.11244447  0.09414561    -0.21400
F1537       F  0.68677764  0.07984030  0.12768878    -0.18600
F1538       F  0.81779866  0.14276619  0.13175223    -0.18700
F1539       F  0.82371984  0.13433031  0.08587443    -0.22500
F1540       F  0.83062445  0.09981050  0.11757867    -0.24100
C1541       C  0.80383959  0.92920346  0.97185930    -0.10900
C1542       C  0.80144891  0.93176507  0.94258520     0.11700
C1543       C  0.81731551  0.95242433  0.92824705    -0.02700
C1544       C  0.83467494  0.97043112  0.94404340    -0.05500
C1545       C  0.83652771  0.96824355  0.97339096    -0.16200
C1546       C  0.82160294  0.94681258  0.98756573     0.02700
C1547       C  0.78128171  0.91319369  0.92767484     0.12600
C1548       C  0.81559378  0.95567257  0.89649845     0.63300
H1549       H  0.84641923  0.98689218  0.93370120     0.12700
C1550       C  0.82496036  0.94215221  0.01901332     0.55400
H1551       H  0.79142329  0.91334404  0.98234859     0.08500
C1552       C  0.78790460  0.88500865  0.92084838    -0.05400
C1553       C  0.76804703  0.86919308  0.90568377    -0.06100
C1554       C  0.74221657  0.88077242  0.89695404    -0.15700
C1555       C  0.73511032  0.90852323  0.90497821    -0.01300
C1556       C  0.75476508  0.92419147  0.92059005    -0.08800
C1557       C  0.81601114  0.87193232  0.92896718     0.65500
H1558       H  0.77304474  0.84786494  0.89948709     0.10900
C1559       C  0.70685926  0.92138599  0.89740728     0.63900
H1560       H  0.74991380  0.94555802  0.92677432     0.08300
F1561       F  0.85317234  0.93911824  0.02555049    -0.19200
F1562       F  0.81116396  0.91820638  0.02787777    -0.15400
F1563       F  0.81405290  0.96467251  0.03375412    -0.18900
F1564       F  0.78869475  0.96361875  0.88874448    -0.22300
F1565       F  0.82220872  0.93053029  0.88354810    -0.23800
F1566       F  0.83404865  0.97582823  0.88671608    -0.17800
F1567       F  0.68547737  0.90337293  0.90514394    -0.20200
F1568       F  0.70547199  0.92617806  0.86877359    -0.21400
F1569       F  0.70253599  0.94673532  0.91100521    -0.18600
F1570       F  0.81839621  0.84452348  0.91954305    -0.18700
F1571       F  0.81893173  0.87168775  0.95788516    -0.22500
F1572       F  0.83777274  0.88720906  0.91742800    -0.24100
C1573       C  0.26547003  0.91185794  0.07967440    -0.10900
C1574       C  0.23745605  0.91602950  0.08822733     0.11700
C1575       C  0.22763799  0.90277330  0.11284890    -0.02700
C1576       C  0.24639359  0.88602650  0.12834712    -0.05500
C1577       C  0.27429697  0.88085630  0.11959290    -0.16200
C1578       C  0.28422172  0.89441563  0.09496844     0.02700
C1579       C  0.21846475  0.93397319  0.07087589     0.12600
C1580       C  0.19718388  0.90558029  0.12232544     0.63300
H1581       H  0.23891256  0.87603300  0.14733193     0.12700
C1582       C  0.31401715  0.89010892  0.08447603     0.55400
H1583       H  0.27239101  0.92217933  0.06064084     0.08500
C1584       C  0.21742269  0.96347195  0.07418063    -0.05400
C1585       C  0.19769970  0.97893023  0.05831945    -0.06100
C1586       C  0.17952519  0.96592421  0.03896414    -0.15700
C1587       C  0.18106231  0.93643773  0.03517963    -0.01300
C1588       C  0.20054233  0.92092306  0.05138327    -0.08800
C1589       C  0.23750913  0.97854487  0.09390927     0.65500
H1590       H  0.19678413  0.00156158  0.06030856     0.10900
C1591       C  0.16291852  0.92155109  0.01354458     0.63900
H1592       H  0.20196073  0.89835358  0.04904490     0.08300
F1593       F  0.31874163  0.90412486  0.05943333    -0.19200
F1594       F  0.31902720  0.86184183  0.07996551    -0.15400
F1595       F  0.33285960  0.90021059  0.10419184    -0.18900
F1596       F  0.17952955  0.89441081  0.10211950    -0.22300
F1597       F  0.19034613  0.93350270  0.12637517    -0.23800
F1598       F  0.19227365  0.89150210  0.14729930    -0.17800
F1599       F  0.16702347  0.93332067  0.98728888    -0.20200
F1600       F  0.13489654  0.92398702  0.02078231    -0.21400
F1601       F  0.16934262  0.89323492  0.01178416    -0.18600
F1602       F  0.23278087  0.00723645  0.09419846    -0.18700
F1603       F  0.26490514  0.97394454  0.08535529    -0.22500
F1604       F  0.23437434  0.96866883  0.12104072    -0.24100
C1605       C  0.20074604  0.05446347  0.92291632    -0.10900
C1606       C  0.21778500  0.07398257  0.93696094     0.11700
C1607       C  0.21506914  0.07763018  0.96636926    -0.02700
C1608       C  0.19594497  0.06060131  0.98097429    -0.05500
C1609       C  0.17939103  0.04057419  0.96703985    -0.16200
C1610       C  0.18171785  0.03731913  0.93754994     0.02700
C1611       C  0.23673569  0.09167299  0.91978312     0.12600
C1612       C  0.23225728  0.09935114  0.98221890     0.63300
H1613       H  0.19390480  0.06253475  0.00356768     0.12700
C1614       C  0.16478469  0.01540045  0.92175870     0.55400
H1615       H  0.20263845  0.05271032  0.90029583     0.08500
C1616       C  0.26264750  0.08168393  0.90891987    -0.05400
C1617       C  0.27787895  0.09896582  0.89036060    -0.06100
C1618       C  0.26776226  0.12552449  0.88245506    -0.15700
C1619       C  0.24259898  0.13608720  0.89484680    -0.01300
C1620       C  0.22730096  0.11860701  0.91285407    -0.08800
C1621       C  0.27388886  0.05281044  0.91660266     0.65500
H1622       H  0.29715406  0.09137244  0.88091845     0.10900
C1623       C  0.23170095  0.16572613  0.88946400     0.63900
H1624       H  0.20729741  0.12561475  0.92120759     0.08300
F1625       F  0.17226878  0.01400470  0.89367052    -0.19200
F1626       F  0.13648890  0.02195451  0.92313472    -0.15400
F1627       F  0.16926227  0.98920048  0.93351975    -0.18900
F1628       F  0.22477062  0.12601875  0.97347734    -0.22300
F1629       F  0.26059201  0.09521594  0.97724284    -0.23800
F1630       F  0.22794341  0.09781239  0.01095950    -0.17800
F1631       F  0.21971047  0.16747170  0.86300148    -0.20200
F1632       F  0.25350722  0.18476275  0.89160188    -0.21400
F1633       F  0.21137870  0.17344869  0.90882941    -0.18600
F1634       F  0.29976258  0.04756715  0.90434938    -0.18700
F1635       F  0.25544157  0.03233173  0.90759946    -0.22500
F1636       F  0.27707463  0.05081212  0.94542643    -0.24100
C1637       C  0.53868263  0.07554600  0.30724442    -0.10900
C1638       C  0.56540206  0.06683550  0.29808900     0.11700
C1639       C  0.57628645  0.04058904  0.30710254    -0.02700
C1640       C  0.55943322  0.02334345  0.32412790    -0.05500
C1641       C  0.53239465  0.03163510  0.33252545    -0.16200
C1642       C  0.52177858  0.05814401  0.32419222     0.02700
C1643       C  0.58163391  0.08547813  0.27895390     0.12600
C1644       C  0.60548733  0.03076581  0.29855233     0.63300
H1645       H  0.56703084  0.00289769  0.33069594     0.12700
C1646       C  0.49246348  0.06747351  0.33261734     0.55400
H1647       H  0.53095961  0.09586949  0.30047747     0.08500
C1648       C  0.57719406  0.08571769  0.24943067    -0.05400
C1649       C  0.59467223  0.10252549  0.23242631    -0.06100
C1650       C  0.61611269  0.11890398  0.24417790    -0.15700
C1651       C  0.62010261  0.11912780  0.27374197    -0.01300
C1652       C  0.60256269  0.10251128  0.29068921    -0.08800
C1653       C  0.55401493  0.06837087  0.23606989     0.65500
H1654       H  0.59175279  0.10303881  0.20984314     0.10900
C1655       C  0.64299666  0.13680301  0.28723207     0.63900
H1656       H  0.60533938  0.10226647  0.31330111     0.08300
F1657       F  0.48600821  0.09390548  0.32231079    -0.19200
F1658       F  0.49045069  0.06829654  0.36161026    -0.15400
F1659       F  0.47287251  0.04876278  0.32216564    -0.18900
F1660       F  0.62547755  0.04871885  0.30951206    -0.22300
F1661       F  0.60777543  0.03042318  0.26958006    -0.23800
F1662       F  0.61131869  0.00399147  0.30832372    -0.17800
F1663       F  0.64332684  0.13408690  0.31622790    -0.20200
F1664       F  0.63868767  0.16481647  0.28084000    -0.21400
F1665       F  0.66900029  0.12850409  0.27717616    -0.18600
F1666       F  0.55413584  0.07053445  0.20704050    -0.18700
F1667       F  0.52815556  0.07759138  0.24564128    -0.22500
F1668       F  0.55736081  0.04037440  0.24300151    -0.24100
C1669       C  0.47703457  0.91686142  0.28333359    -0.10900
C1670       C  0.44830575  0.91112810  0.28602710     0.11700
C1671       C  0.43417851  0.91949441  0.31093163    -0.02700
C1672       C  0.44847855  0.93651478  0.33067045    -0.05500
C1673       C  0.47691048  0.94374641  0.32716276    -0.16200
C1674       C  0.49191688  0.93182405  0.30411602     0.02700
C1675       C  0.43372982  0.89536662  0.26302136     0.12600
C1676       C  0.40426913  0.91007132  0.31670893     0.63300
H1677       H  0.43729060  0.94492965  0.34861763     0.12700
C1678       C  0.52360812  0.93384389  0.30073059     0.55400
H1679       H  0.48808946  0.90909060  0.26497321     0.08500
C1680       C  0.41949281  0.90914685  0.24064529    -0.05400
C1681       C  0.40255741  0.89314369  0.22213729    -0.06100
C1682       C  0.40042068  0.86388252  0.22493029    -0.15700
C1683       C  0.41771194  0.84993197  0.24500108    -0.01300
C1684       C  0.43376803  0.86597837  0.26400527    -0.08800
C1685       C  0.42222621  0.94060228  0.23655404     0.65500
H1686       H  0.38980286  0.90350412  0.20633540     0.10900
C1687       C  0.41871330  0.81811685  0.24694748     0.63900
H1688       H  0.44564202  0.85565766  0.28052210     0.08300
F1689       F  0.52980750  0.95277163  0.27961386    -0.19200
F1690       F  0.53440104  0.90784401  0.29336289    -0.15400
F1691       F  0.53698557  0.94197730  0.32525293    -0.18900
F1692       F  0.40348555  0.88108051  0.31797954    -0.22300
F1693       F  0.38643850  0.91913071  0.29556856    -0.23800
F1694       F  0.39432512  0.92049042  0.34199427    -0.17800
F1695       F  0.44263330  0.80904575  0.26095797    -0.20200
F1696       F  0.41910094  0.80643642  0.22029184    -0.21400
F1697       F  0.39546882  0.80844782  0.26135288    -0.18600
F1698       F  0.40729857  0.94985231  0.21328841    -0.18700
F1699       F  0.45021638  0.94731822  0.23266678    -0.22500
F1700       F  0.41226704  0.95473351  0.25989871    -0.24100
C1701       C  0.58685983  0.75083690  0.92047048    -0.10900
C1702       C  0.59573533  0.72263979  0.92087729     0.11700
C1703       C  0.62055654  0.71476934  0.90642950    -0.02700
C1704       C  0.63561405  0.73556512  0.89189541    -0.05500
C1705       C  0.62647155  0.76362823  0.89107241    -0.16200
C1706       C  0.60214338  0.77165602  0.90605968     0.02700
C1707       C  0.57780876  0.70165364  0.93547904     0.12600
C1708       C  0.63081355  0.68450534  0.90588985     0.63300
H1709       H  0.65441292  0.72992347  0.88033875     0.12700
C1710       C  0.59300855  0.80211681  0.90739058     0.55400
H1711       H  0.56769122  0.75636240  0.93143798     0.08500
C1712       C  0.57782136  0.69855360  0.96511732    -0.05400
C1713       C  0.55933996  0.67902076  0.97734770    -0.06100
C1714       C  0.54056819  0.66318119  0.96099035    -0.15700
C1715       C  0.54041237  0.66648522  0.93138582    -0.01300
C1716       C  0.55931899  0.68555583  0.91910680    -0.08800
C1717       C  0.59666771  0.71632944  0.98376514     0.65500
H1718       H  0.55853489  0.67673321  0.99999289     0.10900
C1719       C  0.51941727  0.65101644  0.91302063     0.63900
H1720       H  0.55928700  0.68872626  0.89655782     0.08300
F1721       F  0.57015155  0.80586479  0.92499648    -0.19200
F1722       F  0.58563760  0.81137792  0.88082568    -0.15400
F1723       F  0.61492262  0.81828295  0.91752058    -0.18900
F1724       F  0.61170653  0.66800248  0.89156342    -0.22300
F1725       F  0.63377512  0.67444985  0.93300458    -0.23800
F1726       F  0.65658972  0.68194297  0.89262585    -0.17800
F1727       F  0.52230710  0.65788459  0.88488824    -0.20200
F1728       F  0.49236383  0.65790362  0.92113896    -0.21400
F1729       F  0.52332187  0.62238452  0.91568163    -0.18600
F1730       F  0.59431870  0.70899836  0.01183506    -0.18700
F1731       F  0.58932154  0.74431328  0.98122868    -0.22500
F1732       F  0.62444891  0.71293001  0.97595081    -0.24100
C1733       C  0.42579188  0.70888786  0.01938744    -0.10900
C1734       C  0.42271433  0.70597448  0.04848825     0.11700
C1735       C  0.43228858  0.68107799  0.06182557    -0.02700
C1736       C  0.44830846  0.66169990  0.04610094    -0.05500
C1737       C  0.45300458  0.66550856  0.01719370    -0.16200
C1738       C  0.43946663  0.68827968  0.00324397     0.02700
C1739       C  0.40721631  0.72814059  0.06411060     0.12600
C1740       C  0.42517101  0.67487616  0.09233641     0.63300
H1741       H  0.45795396  0.64384212  0.05647317     0.12700
C1742       C  0.43809480  0.69131267  0.97150006     0.55400
H1743       H  0.41668220  0.72709810  0.00906485     0.08500
C1744       C  0.42107002  0.75035351  0.07825919    -0.05400
C1745       C  0.40526603  0.76786394  0.09625941    -0.06100
C1746       C  0.37626241  0.76397278  0.09972153    -0.15700
C1747       C  0.36202482  0.74398913  0.08272940    -0.01300
C1748       C  0.37789497  0.72624690  0.06526366    -0.08800
C1749       C  0.45230090  0.75541357  0.07429978     0.65500
H1750       H  0.41566227  0.78365764  0.10888183     0.10900
C1751       C  0.33023931  0.74082334  0.08342525     0.63900
H1752       H  0.36763507  0.70977886  0.05339178     0.08300
F1753       F  0.45508148  0.71325068  0.96312402    -0.19200
F1754       F  0.41069124  0.69712856  0.96343846    -0.15400
F1755       F  0.44623358  0.66711083  0.95764809    -0.18900
F1756       F  0.39628585  0.67437273  0.09559552    -0.22300
F1757       F  0.43622538  0.69527243  0.10975132    -0.23800
F1758       F  0.43570588  0.64911135  0.10086978    -0.17800
F1759       F  0.32052626  0.72571468  0.06050820    -0.20200
F1760       F  0.31750079  0.76697968  0.08276825    -0.21400
F1761       F  0.32224488  0.72683802  0.10756293    -0.18600
F1762       F  0.46148187  0.77835922  0.08961039    -0.18700
F1763       F  0.45768340  0.76045195  0.04619472    -0.22500
F1764       F  0.46762444  0.73222822  0.08283405    -0.24100
C1765       C  0.59125753  0.24388165  0.07859912    -0.10900
C1766       C  0.57796757  0.26726348  0.09074738     0.11700
C1767       C  0.58080709  0.27230753  0.11993579    -0.02700
C1768       C  0.59741806  0.25381530  0.13597497    -0.05500
C1769       C  0.61210883  0.23131313  0.12363292    -0.16200
C1770       C  0.60905539  0.22616454  0.09440029     0.02700
C1771       C  0.56157795  0.28643672  0.07226565     0.12600
C1772       C  0.56723381  0.29768591  0.13388847     0.63300
H1773       H  0.60013494  0.25762566  0.15826793     0.12700
C1774       C  0.62479674  0.20257111  0.07974667     0.55400
H1775       H  0.58842180  0.24030361  0.05628451     0.08500
C1776       C  0.57479868  0.30621449  0.05444127    -0.05400
C1777       C  0.55786398  0.32354504  0.03736449    -0.06100
C1778       C  0.52843925  0.32157982  0.03766772    -0.15700
C1779       C  0.51522175  0.30251928  0.05631346    -0.01300
C1780       C  0.53217129  0.28482479  0.07292355    -0.08800
C1781       C  0.60662302  0.30862805  0.05308716     0.65500
H1782       H  0.56749546  0.33815488  0.02287073     0.10900
C1783       C  0.48342446  0.30135091  0.05929711     0.63900
H1784       H  0.52257948  0.26943878  0.08661077     0.08300
F1785       F  0.65300376  0.20927537  0.07792535    -0.19200
F1786       F  0.61482335  0.19815551  0.05273339    -0.15400
F1787       F  0.62180971  0.17779269  0.09458840    -0.18900
F1788       F  0.53830543  0.29602984  0.13181156    -0.22300
F1789       F  0.57621356  0.32201991  0.12091778    -0.23800
F1790       F  0.57410078  0.29949250  0.16213982    -0.17800
F1791       F  0.47546611  0.28523878  0.08214876    -0.20200
F1792       F  0.47143437  0.28974636  0.03552734    -0.21400
F1793       F  0.47283187  0.32815134  0.06319176    -0.18600
F1794       F  0.61495223  0.33097984  0.03651720    -0.18700
F1795       F  0.61792779  0.28437761  0.04176164    -0.22500
F1796       F  0.61754693  0.31262325  0.07975554    -0.24100
C1797       C  0.41294731  0.23799104  0.91146636    -0.10900
C1798       C  0.42437375  0.26241394  0.89960275     0.11700
C1799       C  0.42036377  0.26795403  0.87064957    -0.02700
C1800       C  0.40280113  0.25007232  0.85509130    -0.05500
C1801       C  0.38938819  0.22686728  0.86740574    -0.16200
C1802       C  0.39525168  0.22004922  0.89584327     0.02700
C1803       C  0.43932104  0.28257822  0.91820066     0.12600
C1804       C  0.43397774  0.29304029  0.85642379     0.63300
H1805       H  0.39855782  0.25466948  0.83316966     0.12700
C1806       C  0.38187097  0.19489337  0.90997807     0.55400
H1807       H  0.41709704  0.23378082  0.93347834     0.08500
C1808       C  0.42455655  0.30199223  0.93536436    -0.05400
C1809       C  0.44003979  0.32083928  0.95209975    -0.06100
C1810       C  0.46953901  0.32108037  0.95178284    -0.15700
C1811       C  0.48419420  0.30253182  0.93354802    -0.01300
C1812       C  0.46876742  0.28292406  0.91781583    -0.08800
C1813       C  0.39261630  0.30262537  0.93614392     0.65500
H1814       H  0.42923730  0.33497098  0.96633111     0.10900
C1815       C  0.51585643  0.30277729  0.92938720     0.63900
H1816       H  0.47984830  0.26807387  0.90451815     0.08300
F1817       F  0.35288570  0.19704684  0.90846157    -0.19200
F1818       F  0.38937046  0.19292134  0.93806256    -0.15400
F1819       F  0.39052107  0.17053586  0.89668986    -0.18900
F1820       F  0.46291102  0.29039534  0.85757917    -0.22300
F1821       F  0.42604520  0.31759006  0.86979319    -0.23800
F1822       F  0.42629137  0.29519080  0.82840175    -0.17800
F1823       F  0.52165605  0.30482961  0.90095971    -0.20200
F1824       F  0.52719270  0.27797086  0.93948960    -0.21400
F1825       F  0.52899304  0.32500541  0.94261646    -0.18600
F1826       F  0.38255726  0.32374355  0.95346535    -0.18700
F1827       F  0.38255505  0.27735957  0.94615397    -0.22500
F1828       F  0.38208845  0.30719528  0.90940020    -0.24100
C1829       C  0.04619189  0.81492669  0.09420252    -0.10900
C1830       C  0.06866053  0.79943742  0.08293651     0.11700
C1831       C  0.07592849  0.80273355  0.05425605    -0.02700
C1832       C  0.05991006  0.82113119  0.03751061    -0.05500
C1833       C  0.03709711  0.83618618  0.04856322    -0.16200
C1834       C  0.03025719  0.83351457  0.07741503     0.02700
C1835       C  0.08411078  0.77935853  0.10125404     0.12600
C1836       C  0.10007218  0.78630778  0.04123710     0.63300
H1837       H  0.06452768  0.82332197  0.01532596     0.12700
C1838       C  0.00589253  0.84976214  0.09012224     0.55400
H1839       H  0.04102936  0.81201619  0.11616698     0.08500
C1840       C  0.10635492  0.78810848  0.11900281    -0.05400
C1841       C  0.12290833  0.76747244  0.13226594    -0.06100
C1842       C  0.11735536  0.73877255  0.12885038    -0.15700
C1843       C  0.09404950  0.73007878  0.11269835    -0.01300
C1844       C  0.07766566  0.75067181  0.09903467    -0.08800
C1845       C  0.11246763  0.81900671  0.12396455     0.65500
H1846       H  0.14040751  0.77356866  0.14552724     0.10900
C1847       C  0.08708091  0.69923758  0.10960990     0.63900
H1848       H  0.06020285  0.74453345  0.08576147     0.08300
F1849       F  0.01092036  0.87824763  0.08803183    -0.19200
F1850       F  0.00215785  0.84337137  0.11826611    -0.15400
F1851       F  0.98128696  0.84341673  0.07595812    -0.18900
F1852       F  0.09358185  0.75805487  0.04073243    -0.22300
F1853       F  0.12439209  0.79016024  0.05674153    -0.23800
F1854       F  0.10537414  0.79478329  0.01392545    -0.17800
F1855       F  0.06321787  0.69516240  0.09340351    -0.20200
F1856       F  0.08243661  0.68763456  0.13584350    -0.21400
F1857       F  0.10930571  0.68541819  0.09690828    -0.18600
F1858       F  0.13580868  0.82279856  0.14100326    -0.18700
F1859       F  0.08968223  0.83150171  0.13701725    -0.22500
F1860       F  0.11741768  0.83241054  0.09868630    -0.24100
C1861       C  0.95704510  0.80515723  0.93132134    -0.10900
C1862       C  0.92952417  0.80016164  0.94062043     0.11700
C1863       C  0.92016547  0.81231221  0.96615460    -0.02700
C1864       C  0.93857788  0.82998294  0.98115292    -0.05500
C1865       C  0.96609475  0.83493363  0.97187961    -0.16200
C1866       C  0.97571057  0.82216324  0.94676321     0.02700
C1867       C  0.91141642  0.78110066  0.92371865     0.12600
C1868       C  0.89125970  0.80579067  0.97797302     0.63300
H1869       H  0.93196345  0.83942574  0.00078787     0.12700
C1870       C  0.00566739  0.82625022  0.93664354     0.55400
H1871       H  0.96389392  0.79520907  0.91201820     0.08500
C1872       C  0.89494117  0.79107115  0.90094493    -0.05400
C1873       C  0.87818990  0.77182692  0.88605191    -0.06100
C1874       C  0.87812133  0.74310163  0.89263994    -0.15700
C1875       C  0.89531470  0.73294313  0.91465342    -0.01300
C1876       C  0.91163389  0.75226333  0.93010075    -0.08800
C1877       C  0.89580147  0.82164222  0.89176877     0.65500
H1878       H  0.86532848  0.77897386  0.86861892     0.10900
C1879       C  0.89682666  0.70183971  0.92108485     0.63900
H1880       H  0.92493240  0.74501471  0.94714664     0.08300
F1881       F  0.01071472  0.81220670  0.91165051    -0.19200
F1882       F  0.02436838  0.81613781  0.95655743    -0.15400
F1883       F  0.01064901  0.85449906  0.93233619    -0.18900
F1884       F  0.88909526  0.77730141  0.98298311    -0.22300
F1885       F  0.87054890  0.81372085  0.95913637    -0.23800
F1886       F  0.88640333  0.81973654  0.00304905    -0.17800
F1887       F  0.91530170  0.69609664  0.94289952    -0.20200
F1888       F  0.90588365  0.68743930  0.89749421    -0.21400
F1889       F  0.87048915  0.69224388  0.92859528    -0.18600
F1890       F  0.87766241  0.82689315  0.86953904    -0.18700
F1891       F  0.92271138  0.82836888  0.88323605    -0.22500
F1892       F  0.88821522  0.83905640  0.91372419    -0.24100
C1893       C  0.96226457  0.58119955  0.71357114    -0.10900
C1894       C  0.93311995  0.57738310  0.71401577     0.11700
C1895       C  0.92034536  0.55927767  0.69411863    -0.02700
C1896       C  0.93775539  0.54341463  0.67604420    -0.05500
C1897       C  0.96712845  0.54647505  0.67632224    -0.16200
C1898       C  0.97954157  0.56656569  0.69460126     0.02700
C1899       C  0.91662712  0.59469451  0.73410942     0.12600
C1900       C  0.88857199  0.55793314  0.69099142     0.63300
H1901       H  0.92858054  0.52861633  0.66139518     0.12700
C1902       C  0.01071111  0.57344516  0.69351367     0.55400
H1903       H  0.97137519  0.59604153  0.72823074     0.08500
C1904       C  0.90959192  0.58518908  0.76143435    -0.05400
C1905       C  0.89357921  0.60293766  0.77898039    -0.06100
C1906       C  0.88653344  0.63041167  0.77083347    -0.15700
C1907       C  0.89555886  0.64058550  0.74426586    -0.01300
C1908       C  0.91004442  0.62224049  0.72615932    -0.08800
C1909       C  0.91995643  0.55701799  0.77238135     0.65500
H1910       H  0.88679194  0.59568274  0.79944173     0.10900
C1911       C  0.88947400  0.67045544  0.73469191     0.63900
H1912       H  0.91667357  0.62930533  0.70557267     0.08300
F1913       F  0.02635285  0.55163700  0.70458847    -0.19200
F1914       F  0.01695379  0.59735239  0.70884421    -0.15400
F1915       F  0.01874852  0.57811649  0.66597772    -0.18900
F1916       F  0.87860063  0.58375487  0.68210519    -0.22300
F1917       F  0.87606291  0.55134167  0.71630899    -0.23800
F1918       F  0.88050472  0.53793980  0.67146720    -0.17800
F1919       F  0.90312360  0.68921927  0.75216534    -0.20200
F1920       F  0.86083953  0.67562436  0.73535802    -0.21400
F1921       F  0.89873935  0.67524922  0.70755293    -0.18600
F1922       F  0.91096278  0.55205783  0.79960012    -0.18700
F1923       F  0.94902869  0.55660275  0.77236557    -0.22500
F1924       F  0.91029200  0.53544403  0.75559440    -0.24100
C1925       C  0.11987261  0.42456056  0.72791720    -0.10900
C1926       C  0.09081042  0.42710174  0.73142167     0.11700
C1927       C  0.07741367  0.41307659  0.75402263    -0.02700
C1928       C  0.09378954  0.39595178  0.77198626    -0.05500
C1929       C  0.12276634  0.39257150  0.76763345    -0.16200
C1930       C  0.13625901  0.40807069  0.74605170     0.02700
C1931       C  0.07503624  0.44426570  0.71061094     0.12600
C1932       C  0.04587780  0.41542228  0.75841698     0.63300
H1933       H  0.08382283  0.38368830  0.78831555     0.12700
C1934       C  0.16776912  0.40620431  0.74097525     0.55400
H1935       H  0.12965308  0.43508975  0.71028852     0.08500
C1936       C  0.07559900  0.47393399  0.71122175    -0.05400
C1937       C  0.05949288  0.48878294  0.69137215    -0.06100
C1938       C  0.04257795  0.47501266  0.67144117    -0.15700
C1939       C  0.04309634  0.44526775  0.66997734    -0.01300
C1940       C  0.05976166  0.43040680  0.68951648    -0.08800
C1941       C  0.09260024  0.48982631  0.73312337     0.65500
H1942       H  0.05930989  0.51148473  0.69173247     0.10900
C1943       C  0.02564197  0.42916081  0.64862342     0.63900
H1944       H  0.06063696  0.40769433  0.68886658     0.08300
F1945       F  0.17738663  0.42952165  0.72658718    -0.19200
F1946       F  0.17383509  0.38260568  0.72513845    -0.15400
F1947       F  0.18219965  0.40482458  0.76625228    -0.18900
F1948       F  0.03187985  0.40279296  0.73629745    -0.22300
F1949       F  0.03798863  0.44335606  0.75985430    -0.23800
F1950       F  0.03752451  0.40246804  0.78305737    -0.17800
F1951       F  0.03596307  0.43372975  0.62189052    -0.20200
F1952       F  0.99785004  0.43774079  0.64982235    -0.21400
F1953       F  0.02644464  0.40053000  0.65354805    -0.18600
F1954       F  0.08787974  0.51848651  0.73168680    -0.18700
F1955       F  0.12097965  0.48513451  0.72894543    -0.22500
F1956       F  0.08537317  0.48093404  0.75981700    -0.24100
C1957       C  0.92347071  0.19702314  0.05424573    -0.10900
C1958       C  0.93472383  0.20744268  0.07940557     0.11700
C1959       C  0.96191436  0.19891553  0.08821689    -0.02700
C1960       C  0.97801461  0.18191631  0.07007645    -0.05500
C1961       C  0.96724738  0.17274413  0.04417893    -0.16200
C1962       C  0.93936410  0.17972537  0.03634320     0.02700
C1963       C  0.91708673  0.22690107  0.09618747     0.12600
C1964       C  0.97365080  0.20759548  0.11664213     0.63300
H1965       H  0.99931796  0.17602088  0.07570197     0.12700
C1966       C  0.92675888  0.16933929  0.00892296     0.55400
H1967       H  0.90227401  0.20316275  0.04846046     0.08500
C1968       C  0.91615886  0.25616393  0.09069144    -0.05400
C1969       C  0.89836047  0.27325223  0.10709147    -0.06100
C1970       C  0.88098925  0.26162401  0.12769805    -0.15700
C1971       C  0.88106593  0.23224188  0.13236727    -0.01300
C1972       C  0.89946831  0.21533566  0.11664318    -0.08800
C1973       C  0.93315908  0.26904111  0.06701837     0.65500
H1974       H  0.89741383  0.29570250  0.10360576     0.10900
C1975       C  0.86125203  0.21884528  0.15347985     0.63900
H1976       H  0.89997093  0.19282139  0.11983367     0.08300
F1977       F  0.89897108  0.17760746  0.00587784    -0.19200
F1978       F  0.92771524  0.14033319  0.00815609    -0.15400
F1979       F  0.94180410  0.17993803  0.98648706    -0.18900
F1980       F  0.95665268  0.19730931  0.13778537    -0.22300
F1981       F  0.97462802  0.23651271  0.11865386    -0.23800
F1982       F  0.00057380  0.19725087  0.12091308    -0.17800
F1983       F  0.83370332  0.22505761  0.14633349    -0.20200
F1984       F  0.86675734  0.22907382  0.18013787    -0.21400
F1985       F  0.86412146  0.18991425  0.15417105    -0.18600
F1986       F  0.92963547  0.29787400  0.06570419    -0.18700
F1987       F  0.92462083  0.25783414  0.04159217    -0.22500
F1988       F  0.96144699  0.26348302  0.07084102    -0.24100
C1989       C  0.07730647  0.23153851  0.88244167    -0.10900
C1990       C  0.07395569  0.24012756  0.91035553     0.11700
C1991       C  0.08570941  0.26600633  0.91926201    -0.02700
C1992       C  0.10227606  0.28146176  0.90011956    -0.05500
C1993       C  0.10677450  0.27196427  0.87250858    -0.16200
C1994       C  0.09241036  0.24762401  0.86300045     0.02700
C1995       C  0.05930530  0.22056897  0.92981553     0.12600
C1996       C  0.08106958  0.27698677  0.94887633     0.63300
H1997       H  0.11293944  0.30030650  0.90700555     0.12700
C1998       C  0.09315108  0.23791130  0.83258006     0.55400
H1999       H  0.06833238  0.21168100  0.87593715     0.08500
C2000       C  0.02984664  0.21626803  0.92869645    -0.05400
C2001       C  0.01786547  0.19604571  0.94657845    -0.06100
C2002       C  0.03429373  0.18026406  0.96545502    -0.15700
C2003       C  0.06363018  0.18496894  0.96696803    -0.01300
C2004       C  0.07575044  0.20462337  0.94852902    -0.08800
C2005       C  0.01111206  0.23303383  0.90887769     0.65500
H2006       H  0.99537974  0.19250504  0.94619916     0.10900
C2007       C  0.08178967  0.17019317  0.98873991     0.63900
H2008       H  0.09827401  0.20789645  0.94868373     0.08300
F2009       F  0.06943900  0.22240289  0.82604473    -0.19200
F2010       F  0.11662224  0.22126901  0.82821666    -0.15400
F2011       F  0.09375616  0.26062825  0.81445132    -0.18900
F2012       F  0.09382380  0.25938053  0.96819279    -0.22300
F2013       F  0.05258472  0.27837100  0.95449793    -0.23800
F2014       F  0.09212167  0.30361070  0.95236282    -0.17800
F2015       F  0.08165567  0.14158048  0.98401355    -0.20200
F2016       F  0.07145570  0.17560521  0.01537890    -0.21400
F2017       F  0.10941468  0.17921043  0.98785383    -0.18600
F2018       F  0.98287452  0.22811509  0.91381987    -0.18700
F2019       F  0.01674506  0.22571682  0.88134179    -0.22500
F2020       F  0.01585040  0.26143900  0.91235215    -0.24100
C2021       C  0.09916181  0.57094385  0.24871331    -0.10900
C2022       C  0.09169439  0.58206989  0.27502607     0.11700
C2023       C  0.10088015  0.60919480  0.28272413    -0.02700
C2024       C  0.11656996  0.62471332  0.26323608    -0.05500
C2025       C  0.12388534  0.61378960  0.23677177    -0.16200
C2026       C  0.11490336  0.58648601  0.22913550     0.02700
C2027       C  0.07383382  0.56504197  0.29399012     0.12600
C2028       C  0.09482673  0.62137943  0.31165458     0.63300
H2029       H  0.12398767  0.64545607  0.26885395     0.12700
C2030       C  0.12020534  0.57303325  0.20068645     0.55400
H2031       H  0.09208467  0.55003769  0.24318941     0.08500
C2032       C  0.04420324  0.56475271  0.29130575    -0.05400
C2033       C  0.02852193  0.54884757  0.31051676    -0.06100
C2034       C  0.04146337  0.53282211  0.33176238    -0.15700
C2035       C  0.07123020  0.53269949  0.33408618    -0.01300
C2036       C  0.08692394  0.54901933  0.31506207    -0.08800
C2037       C  0.02924333  0.58089399  0.26805528     0.65500
H2038       H  0.00580719  0.54833524  0.30881108     0.10900
C2039       C  0.08649024  0.51509070  0.35597328     0.63900
H2040       H  0.10965696  0.54949816  0.31647691     0.08300
F2041       F  0.09473740  0.56555251  0.18877021    -0.19200
F2042       F  0.13634318  0.54908953  0.20431772    -0.15400
F2043       F  0.13378637  0.59047737  0.18196407    -0.18900
F2044       F  0.10829273  0.60542916  0.33193265    -0.22300
F2045       F  0.06624403  0.62134595  0.31684988    -0.23800
F2046       F  0.10421359  0.64875622  0.31409967    -0.17800
F2047       F  0.07703721  0.48768708  0.35504290    -0.20200
F2048       F  0.08177650  0.52604719  0.38245020    -0.21400
F2049       F  0.11525996  0.51468558  0.35148298    -0.18600
F2050       F  0.00033875  0.57775788  0.26938648    -0.18700
F2051       F  0.03804628  0.57121830  0.24211169    -0.22500
F2052       F  0.03520270  0.60918631  0.27017397    -0.24100
C2053       C  0.94656053  0.41812350  0.31442981    -0.10900
C2054       C  0.93059803  0.43238724  0.29399500     0.11700
C2055       C  0.93181907  0.46203549  0.29252793    -0.02700
C2056       C  0.94923096  0.47643847  0.31159154    -0.05500
C2057       C  0.96569893  0.46223118  0.33166552    -0.16200
C2058       C  0.96477804  0.43251293  0.33290575     0.02700
C2059       C  0.91260680  0.41574319  0.27448650     0.12600
C2060       C  0.91488171  0.47840057  0.27086088     0.63300
H2061       H  0.95045762  0.49912925  0.31077610     0.12700
C2062       C  0.98400729  0.41603497  0.35243770     0.55400
H2063       H  0.94509729  0.39545559  0.31529598     0.08500
C2064       C  0.92366308  0.40177270  0.25059977    -0.05400
C2065       C  0.90524878  0.38633524  0.23321388    -0.06100
C2066       C  0.87633861  0.38457901  0.23895548    -0.15700
C2067       C  0.86540603  0.39838090  0.26314773    -0.01300
C2068       C  0.88385528  0.41375856  0.28044170    -0.08800
C2069       C  0.95481540  0.40297130  0.24371782     0.65500
H2070       H  0.91335749  0.37514180  0.21512606     0.10900
C2071       C  0.83465384  0.39592876  0.27152860     0.63900
H2072       H  0.87602638  0.42429787  0.29904270     0.08300
F2073       F  0.98131144  0.38735146  0.34860516    -0.19200
F2074       F  0.97765984  0.42199826  0.38013303    -0.15400
F2075       F  0.01169762  0.42312343  0.34724627    -0.18900
F2076       F  0.88650806  0.47563149  0.27635721    -0.22300
F2077       F  0.92038845  0.46837271  0.24414713    -0.23800
F2078       F  0.92134320  0.50671572  0.27124445    -0.17800
F2079       F  0.82723307  0.36794129  0.27353591    -0.20200
F2080       F  0.81784855  0.40903860  0.25169215    -0.21400
F2081       F  0.82934246  0.40839466  0.29729471    -0.18600
F2082       F  0.96099522  0.38893551  0.21898755    -0.18700
F2083       F  0.97022880  0.39066174  0.26511470    -0.22500
F2084       F  0.96318186  0.43056108  0.24070626    -0.24100
C2085       C  0.29272285  0.57282787  0.03433817    -0.10900
C2086       C  0.29314348  0.56952372  0.06363670     0.11700
C2087       C  0.31164002  0.54957660  0.07599048    -0.02700
C2088       C  0.32861555  0.53298884  0.05827956    -0.05500
C2089       C  0.32780342  0.53602539  0.02896211    -0.16200
C2090       C  0.31034263  0.55690359  0.01672817     0.02700
C2091       C  0.27381796  0.58726056  0.08071696     0.12600
C2092       C  0.31342802  0.54577344  0.10766488     0.63300
H2093       H  0.34219318  0.51694233  0.06712684     0.12700
C2094       C  0.31083017  0.56287363  0.98534550     0.55400
H2095       H  0.27829932  0.58802459  0.02532441     0.08500
C2096       C  0.27921488  0.61604383  0.08574068    -0.05400
C2097       C  0.26010637  0.63145265  0.10225830    -0.06100
C2098       C  0.23635498  0.61890633  0.11439488    -0.15700
C2099       C  0.23077310  0.59016410  0.10907529    -0.01300
C2100       C  0.24937911  0.57499013  0.09167985    -0.08800
C2101       C  0.30532196  0.63029092  0.07420214     0.65500
H2102       H  0.26411407  0.65338953  0.10666196     0.10900
C2103       C  0.20530800  0.57560450  0.12148765     0.63900
H2104       H  0.24538884  0.55310921  0.08701518     0.08300
F2105       F  0.33830954  0.56621446  0.97649629    -0.19200
F2106       F  0.29620143  0.58720164  0.97877510    -0.15400
F2107       F  0.29869658  0.54100146  0.97067958    -0.18900
F2108       F  0.28802027  0.53630375  0.11793102    -0.22300
F2109       F  0.31992230  0.57106478  0.12032221    -0.23800
F2110       F  0.33394749  0.52645554  0.11516780    -0.17800
F2111       F  0.20163746  0.54902116  0.11031533    -0.20200
F2112       F  0.18128346  0.59111201  0.11590703    -0.21400
F2113       F  0.20860074  0.57284736  0.15024965    -0.18600
F2114       F  0.30770061  0.65768334  0.08362197    -0.18700
F2115       F  0.30425181  0.63090814  0.04517286    -0.22500
F2116       F  0.32914517  0.61579886  0.08261531    -0.24100
C2117       C  0.30043980  0.44073520  0.92170642    -0.10900
C2118       C  0.28453525  0.42140479  0.93718739     0.11700
C2119       C  0.28986876  0.41786030  0.96628705    -0.02700
C2120       C  0.31008413  0.43509255  0.97924700    -0.05500
C2121       C  0.32526974  0.45514076  0.96395377    -0.16200
C2122       C  0.32063274  0.45798177  0.93467222     0.02700
C2123       C  0.26385840  0.40393726  0.92165138     0.12600
C2124       C  0.27417119  0.39618841  0.98357958     0.63300
H2125       H  0.31388711  0.43347858  0.00166197     0.12700
C2126       C  0.33633470  0.47965026  0.91741924     0.55400
H2127       H  0.29659707  0.44239014  0.89929916     0.08500
C2128       C  0.23721631  0.41429008  0.91295537    -0.05400
C2129       C  0.22048527  0.39760864  0.89499919    -0.06100
C2130       C  0.22982395  0.37125281  0.88559553    -0.15700
C2131       C  0.25560283  0.36011944  0.89627816    -0.01300
C2132       C  0.27239395  0.37704512  0.91356875    -0.08800
C2133       C  0.22691870  0.44308998  0.92202604     0.65500
H2134       H  0.20071631  0.40566753  0.88697924     0.10900
C2135       C  0.26598170  0.33063313  0.88937640     0.63900
H2136       H  0.29293662  0.36967245  0.92024180     0.08300
F2137       F  0.32770545  0.47974207  0.88958581    -0.19200
F2138       F  0.36482827  0.47384610  0.91802194    -0.15400
F2139       F  0.33166716  0.50616693  0.92833841    -0.18900
F2140       F  0.28022322  0.36952995  0.97380423    -0.22300
F2141       F  0.24553142  0.40081851  0.98163183    -0.23800
F2142       F  0.28163764  0.39726924  0.01171880    -0.17800
F2143       F  0.27779624  0.33015696  0.86283193    -0.20200
F2144       F  0.24396715  0.31175726  0.89053775    -0.21400
F2145       F  0.28625859  0.32168769  0.90835624    -0.18600
F2146       F  0.19983855  0.44841365  0.91264234    -0.18700
F2147       F  0.24432092  0.46360123  0.91127597    -0.22500
F2148       F  0.22693583  0.44489739  0.95103186    -0.24100
C2149       C  0.70016022  0.54024910  0.91786198    -0.10900
C2150       C  0.70532896  0.56681790  0.92948832     0.11700
C2151       C  0.69075812  0.57516660  0.95412837    -0.02700
C2152       C  0.67292622  0.55567743  0.96742390    -0.05500
C2153       C  0.66883424  0.52865551  0.95644846    -0.16200
C2154       C  0.68207705  0.52093068  0.93096108     0.02700
C2155       C  0.72508118  0.58580879  0.91441569     0.12600
C2156       C  0.69407485  0.60444227  0.96631201     0.63300
H2157       H  0.66233037  0.56119207  0.98680644     0.12700
C2158       C  0.67663075  0.49258838  0.91748670     0.55400
H2159       H  0.71062815  0.53472869  0.89841338     0.08500
C2160       C  0.75473514  0.58358254  0.91731085    -0.05400
C2161       C  0.77202351  0.60209888  0.90194566    -0.06100
C2162       C  0.76050570  0.62184364  0.88330272    -0.15700
C2163       C  0.73095236  0.62310974  0.87943933    -0.01300
C2164       C  0.71369998  0.60518622  0.89531789    -0.08800
C2165       C  0.76799800  0.56151470  0.93623843     0.65500
H2166       H  0.79467587  0.60111706  0.90410404     0.10900
C2167       C  0.71780993  0.64292711  0.85807057     0.63900
H2168       H  0.69107587  0.60584819  0.89269136     0.08300
F2169       F  0.68507300  0.47127171  0.93535964    -0.19200
F2170       F  0.69106079  0.48947781  0.89241849    -0.15400
F2171       F  0.64820117  0.48989589  0.91194989    -0.18900
F2172       F  0.68543967  0.62423256  0.94683564    -0.22300
F2173       F  0.72191590  0.60915910  0.97316219    -0.23800
F2174       F  0.67811644  0.60811308  0.99036818    -0.17800
F2175       F  0.72788093  0.63666633  0.83152701    -0.20200
F2176       F  0.72454415  0.67036570  0.86466606    -0.21400
F2177       F  0.68878840  0.64070585  0.85739247    -0.18600
F2178       F  0.79707455  0.56285785  0.93590180    -0.18700
F2179       F  0.76030103  0.53501321  0.92730891    -0.22500
F2180       F  0.75910436  0.56533240  0.96362285    -0.24100
C2181       C  0.69313248  0.44554337  0.07156349    -0.10900
C2182       C  0.70315071  0.41951418  0.06202095     0.11700
C2183       C  0.69348860  0.40874843  0.03595440    -0.02700
C2184       C  0.67640550  0.42598147  0.01880745    -0.05500
C2185       C  0.66749321  0.45259789  0.02787741    -0.16200
C2186       C  0.67492083  0.46210255  0.05507603     0.02700
C2187       C  0.72288467  0.40369373  0.08051911     0.12600
C2188       C  0.70058132  0.37901614  0.02677494     0.63300
H2189       H  0.66978110  0.41882068  0.99821541     0.12700
C2190       C  0.66327083  0.48947181  0.06661423     0.55400
H2191       H  0.69978296  0.45277810  0.09212259     0.08500
C2192       C  0.75230986  0.40859968  0.08039284    -0.05400
C2193       C  0.76954741  0.39370627  0.09949944    -0.06100
C2194       C  0.75808333  0.37448416  0.11853898    -0.15700
C2195       C  0.72868176  0.36962143  0.11863122    -0.01300
C2196       C  0.71151183  0.38455904  0.09968748    -0.08800
C2197       C  0.76530771  0.42964619  0.06032908     0.65500
H2198       H  0.79207492  0.39695960  0.09978016     0.10900
C2199       C  0.71556552  0.34871325  0.13881135     0.63900
H2200       H  0.68894969  0.38150875  0.09969980     0.08300
F2201       F  0.67269357  0.49467789  0.09367329    -0.19200
F2202       F  0.63422111  0.48821458  0.06725556    -0.15400
F2203       F  0.67137408  0.51162340  0.04973538    -0.18900
F2204       F  0.68951491  0.36015280  0.04583426    -0.22300
F2205       F  0.72938147  0.37529710  0.02557143    -0.23800
F2206       F  0.68951421  0.37290649  0.00053305    -0.17800
F2207       F  0.72120095  0.35660105  0.16623954    -0.20200
F2208       F  0.72661703  0.32223960  0.13407169    -0.21400
F2209       F  0.68666432  0.34720917  0.13554747    -0.18600
F2210       F  0.79425215  0.43081899  0.06327258    -0.18700
F2211       F  0.75453304  0.45612140  0.06554772    -0.22500
F2212       F  0.75933009  0.42228991  0.03285252    -0.24100
loop_ 
_geom_bond_atom_site_label_1 
_geom_bond_atom_site_label_2 
_geom_bond_distance 
_geom_bond_site_symmetry_2 
_ccdc_geom_bond_type 
Zn1           O5   1.971       .  S
Zn1           O6   2.040       .  S
Zn1          O10   2.043       .  S
Zn1          O17   2.028       .  S
Zn2           O5   1.972   1_554  S
Zn2           O7   2.026       .  S
Zn2           O9   2.025       .  S
Zn2          O13   2.036       .  S
Zn3           O5   1.976   1_554  S
Zn3           O8   2.051       .  S
Zn3          O11   2.048       .  S
Zn3          O14   2.040       .  S
Zn4           O5   1.979       .  S
Zn4          O12   2.033       .  S
Zn4          O15   2.039       .  S
Zn4          O16   2.036       .  S
O6           C18   1.276       .  A
O7           C19   1.275       .  A
O8           C20   1.277   1_554  A
O9           C18   1.275   1_554  A
O10          C20   1.277       .  A
O11          C19   1.279       .  A
O12          C21   1.276       .  A
O13          C22   1.276   1_554  A
O14          C21   1.277   1_554  A
O15          C22   1.276       .  A
O16          C23   1.275       .  A
O17          C23   1.277       .  A
C18          C97   1.490       .  S
C19         C387   1.491       .  S
C20         C252   1.496       .  S
C21         C104   1.491       .  S
C22         C241   1.492       .  S
C23         C480   1.490       .  S
Zn24         O28   1.989       .  S
Zn24         O29   2.045       .  S
Zn24         O33   2.053       .  S
Zn24         O40   2.063       .  S
Zn25         O28   1.983       .  S
Zn25         O30   2.044       .  S
Zn25         O32   2.046       .  S
Zn25         O36   2.037       .  S
Zn26         O28   1.990   1_545  S
Zn26         O31   2.047       .  S
Zn26         O34   2.066       .  S
Zn26         O37   2.084       .  S
Zn27         O28   1.979   1_545  S
Zn27         O35   2.038       .  S
Zn27         O38   2.034       .  S
Zn27         O39   2.049       .  S
O29          C41   1.276       .  A
O30          C42   1.276       .  A
O31          C43   1.278   1_545  A
O32          C41   1.275       .  A
O33          C43   1.278       .  A
O34          C42   1.278   1_545  A
O35          C44   1.275       .  A
O36          C45   1.275       .  A
O37          C44   1.281       .  A
O38          C45   1.275   1_545  A
O39          C46   1.277   1_545  A
O40          C46   1.277       .  A
C41         C439   1.481       .  S
C42         C309   1.486       .  S
C43         C544   1.482       .  S
C44         C428   1.489       .  S
C45         C535   1.473       .  S
C46         C259   1.487       .  S
Zn47         O51   1.984   1_455  S
Zn47         O52   2.068       .  S
Zn47         O56   2.039       .  S
Zn47         O63   2.054       .  S
Zn48         O51   1.973       .  S
Zn48         O53   2.032       .  S
Zn48         O55   2.026       .  S
Zn48         O59   2.041       .  S
Zn49         O51   1.992       .  S
Zn49         O54   2.045       .  S
Zn49         O57   2.060       .  S
Zn49         O60   2.059       .  S
Zn50         O51   1.972   1_455  S
Zn50         O58   2.047       .  S
Zn50         O61   2.037       .  S
Zn50         O62   2.033       .  S
O52          C64   1.279   1_455  A
O53          C65   1.277       .  A
O54          C66   1.277       .  A
O55          C64   1.274       .  A
O56          C66   1.279   1_455  A
O57          C65   1.279       .  A
O58          C67   1.279   1_455  A
O59          C68   1.276       .  A
O60          C67   1.278       .  A
O61          C68   1.276   1_455  A
O62          C69   1.276       .  A
O63          C69   1.278       .  A
C64         C551   1.498       .  S
C65         C396   1.496       .  S
C66         C131   1.493   1_655  S
C67         C569   1.499       .  S
C68         C113   1.494       .  S
C69         C471   1.495       .  S
Zn70         O74   1.966   1_655  S
Zn70         O75   2.032       .  S
Zn70         O79   2.027       .  S
Zn70         O86   2.015       .  S
Zn71         O74   1.982   1_565  S
Zn71         O76   2.033       .  S
Zn71         O78   2.049       .  S
Zn71         O82   2.031       .  S
Zn72         O74   1.979   1_666  S
Zn72         O77   2.039       .  S
Zn72         O80   2.039       .  S
Zn72         O83   2.047       .  S
Zn73         O74   1.983   1_556  S
Zn73         O81   2.062       .  S
Zn73         O84   2.053       .  S
Zn73         O85   2.066       .  S
O75          C87   1.276   1_655  A
O76          C88   1.277       .  A
O77          C89   1.277   1_566  A
O78          C87   1.275   1_565  A
O79          C89   1.274       .  A
O80          C88   1.277   1_656  A
O81          C90   1.280       .  A
O82          C91   1.276   1_565  A
O83          C90   1.277   1_665  A
O84          C91   1.280   1_556  A
O85          C92   1.279   1_556  A
O86          C92   1.274   1_655  A
C87         C560   1.495       .  S
C88         C165   1.491       .  S
C89         C277   1.490       .  S
C90         C624   1.500       .  S
C91         C270   1.494       .  S
C92         C122   1.494       .  S
C93        C2185   1.482       .  S
C93          C94   1.400   1_554  A
C93          C98   1.403       .  A
C94          C95   1.401       .  A
C94          H99   1.084       .  S
C95        C2153   1.484       .  S
C95          C96   1.407       .  A
C96          C97   1.413       .  A
C96         H100   1.083       .  S
C97          C98   1.412   1_556  A
C98         H101   1.084       .  S
C102       C2089   1.482       .  S
C102        C103   1.406       .  A
C102        C107   1.396   1_554  A
C103        C104   1.413   1_554  A
C103        H108   1.084       .  S
C104        C105   1.413       .  A
C105        C106   1.406       .  A
C105        H109   1.082       .  S
C106       C2121   1.481       .  S
C106        C107   1.396       .  A
C107        H110   1.084       .  S
C111       C2034   1.488       .  S
C111        C112   1.406       .  A
C111        C116   1.401       .  A
C112        C113   1.413   1_455  A
C112        H117   1.082       .  S
C113        C114   1.414       .  A
C114        C115   1.408       .  A
C114        H118   1.083       .  S
C115       C2057   1.489       .  S
C115        C116   1.400   1_655  A
C116        H119   1.085       .  S
C120       C1961   1.478       .  S
C120        C121   1.402       .  A
C120        C125   1.395   1_655  A
C121        C122   1.413   1_655  A
C121        H126   1.083       .  S
C122        C123   1.414   1_554  A
C123        C124   1.411       .  A
C123        H127   1.083       .  S
C124       C2002   1.484       .  S
C124        C125   1.398   1_556  A
C125        H128   1.085       .  S
C129       C1897   1.488       .  S
C129        C130   1.410       .  A
C129        C134   1.397   1_655  A
C130        C131   1.416   1_655  A
C130        H135   1.083       .  S
C131        C132   1.411       .  A
C132        C133   1.403       .  A
C132        H136   1.080       .  S
C133       C1938   1.486       .  S
C133        C134   1.399       .  A
C134        H137   1.084       .  S
Zn138       O142   1.939       .  S
Zn138       O143   1.948       .  S
Zn138       O147   2.005       .  S
Zn138       O154   1.984       .  S
Zn139       O142   1.983       .  S
Zn139       O144   2.087       .  S
Zn139       O146   2.091       .  S
Zn139       O150   2.082       .  S
Zn140       O142   1.941       .  S
Zn140       O145   2.004       .  S
Zn140       O148   1.946       .  S
Zn140       O151   1.993       .  S
Zn141       O142   1.939       .  S
Zn141       O149   2.006       .  S
Zn141       O152   1.978       .  S
Zn141       O153   2.006       .  S
O143        C155   1.265       .  A
O144        C156   1.283       .  A
O145        C157   1.269       .  A
O146        C155   1.283       .  A
O147        C157   1.269       .  A
O148        C156   1.267       .  A
O149        C158   1.271       .  A
O150        C159   1.282       .  A
O151        C158   1.268       .  A
O152        C159   1.271       .  A
O153        C160   1.271       .  A
O154        C160   1.268       .  A
C155       C2130   1.485       .  S
C156       C1929   1.475       .  S
C157        C502   1.465       .  S
C158        C671   1.462       .  S
C159       C1993   1.487       .  S
C160        C333   1.458       .  S
C161       C1833   1.481       .  S
C161        C162   1.400       .  A
C161        C166   1.403       .  A
C162        C163   1.399   1_454  A
C162        H167   1.084       .  S
C163       C1865   1.483       .  S
C163        C164   1.406       .  A
C164        C165   1.413   1_656  A
C164        H168   1.083       .  S
C165        C166   1.411       .  A
C166        H169   1.084       .  S
Zn170       O174   1.929       .  S
Zn170       O175   2.049       .  S
Zn170       O179   2.062       .  S
Zn170       O186   2.055       .  S
Zn171       O174   1.928       .  S
Zn171       O176   2.065       .  S
Zn171       O178   2.043       .  S
Zn171       O182   2.028       .  S
Zn172       O174   1.850       .  S
Zn172       O177   1.954       .  S
Zn172       O180   1.970       .  S
Zn172       O183   1.985       .  S
Zn173       O174   1.916       .  S
Zn173       O181   2.057       .  S
Zn173       O184   2.035       .  S
Zn173       O185   2.014       .  S
O175        C187   1.282       .  A
O176        C188   1.273       .  A
O177        C189   1.266       .  A
O178        C187   1.281       .  A
O179        C189   1.276       .  A
O180        C188   1.264       .  A
O181        C190   1.272       .  A
O182        C191   1.280       .  A
O183        C190   1.266       .  A
O184        C191   1.280       .  A
O185        C192   1.277       .  A
O186        C192   1.282       .  A
C187       C2162   1.481       .  S
C188        C529   1.457       .  S
C189        C306   1.462       .  S
C190        C648   1.462       .  S
C191       C1906   1.482       .  S
C192       C1874   1.477       .  S
Zn193       O197   2.004       .  S
Zn193       O198   2.119       .  S
Zn193       O202   2.052       .  S
Zn193       O209   2.040       .  S
Zn194       O197   1.826       .  S
Zn194       O199   1.893       .  S
Zn194       O201   1.874       .  S
Zn194       O205   1.888       .  S
Zn195       O197   1.997       .  S
Zn195       O200   2.024       .  S
Zn195       O203   2.115       .  S
Zn195       O206   2.028       .  S
Zn196       O197   1.998       .  S
Zn196       O204   2.019       .  S
Zn196       O207   2.107       .  S
Zn196       O208   2.040       .  S
O198        C210   1.272       .  A
O199        C211   1.258       .  A
O200        C212   1.278       .  A
O201        C210   1.256       .  A
O202        C212   1.282       .  A
O203        C211   1.271       .  A
O204        C213   1.278       .  A
O205        C214   1.257       .  A
O206        C213   1.279       .  A
O207        C214   1.271       .  A
O208        C215   1.280       .  A
O209        C215   1.280       .  A
C210        C420   1.474       .  S
C211        C384   1.477       .  S
C212       C2194   1.477       .  S
C213       C1970   1.470       .  S
C214        C618   1.473       .  S
C215       C2066   1.488       .  S
Zn216       O220   1.913       .  S
Zn216       O221   2.000       .  S
Zn216       O225   2.017       .  S
Zn216       O232   2.039       .  S
Zn217       O220   1.923       .  S
Zn217       O222   2.026       .  S
Zn217       O224   2.047       .  S
Zn217       O228   2.064       .  S
Zn218       O220   1.921       .  S
Zn218       O223   2.036       .  S
Zn218       O226   2.047       .  S
Zn218       O229   2.069       .  S
Zn219       O220   1.848       .  S
Zn219       O227   1.970       .  S
Zn219       O230   1.957       .  S
Zn219       O231   1.978       .  S
O221        C233   1.276       .  A
O222        C234   1.279       .  A
O223        C235   1.280       .  A
O224        C233   1.281       .  A
O225        C235   1.277       .  A
O226        C234   1.283       .  A
O227        C236   1.264       .  A
O228        C237   1.275       .  A
O229        C236   1.274       .  A
O230        C237   1.266       .  A
O231        C238   1.265       .  A
O232        C238   1.270       .  A
C233       C2025   1.475       .  S
C234       C2098   1.484       .  S
C235       C1842   1.472       .  S
C236        C357   1.461       .  S
C237        C462   1.463       .  S
C238        C594   1.450       .  S
C239       C1778   1.482       .  S
C239        C240   1.407       .  A
C239        C244   1.396   1_554  A
C240        C241   1.413   1_554  A
C240        H245   1.083       .  S
C241        C242   1.412       .  A
C242        C243   1.406       .  A
C242        H246   1.083       .  S
C243       C1810   1.481       .  S
C243        C244   1.397       .  A
C244        H247   1.084       .  S
C248       C1714   1.485       .  S
C248        C249   1.397       .  A
C248        C253   1.406       .  A
C249        C250   1.401   1_556  A
C249        H254   1.085       .  S
C250       C1737   1.492       .  S
C250        C251   1.411       .  A
C251        C252   1.415   1_554  A
C251        H255   1.083       .  S
C252        C253   1.414       .  A
C253        H256   1.083       .  S
C257       C1641   1.484       .  S
C257        C258   1.403       .  A
C257        C262   1.398   1_545  A
C258        C259   1.407   1_545  A
C258        H263   1.084       .  S
C259        C260   1.416       .  A
C260        C261   1.418       .  A
C260        H264   1.083       .  S
C261       C1673   1.502       .  S
C261        C262   1.405       .  A
C262        H265   1.084       .  S
C266       C1586   1.488       .  S
C266        C267   1.397   1_565  A
C266        C271   1.409       .  A
C267        C268   1.397   1_554  A
C267        H272   1.085       .  S
C268       C1609   1.480       .  S
C268        C269   1.404       .  A
C269        C270   1.411   1_556  A
C269        H273   1.083       .  S
C270        C271   1.416   1_545  A
C271        H274   1.082       .  S
C275       C1513   1.483       .  S
C275        C276   1.407       .  A
C275        C280   1.398       .  A
C276        C277   1.416       .  A
C276        H281   1.083       .  S
C277        C278   1.411   1_544  A
C278        C279   1.402       .  A
C278        H282   1.084       .  S
C279       C1545   1.481       .  S
C279        C280   1.397   1_566  A
C280        H283   1.085       .  S
Zn284       O288   1.858       .  S
Zn284       O289   1.976       .  S
Zn284       O293   1.969       .  S
Zn284       O300   1.964       .  S
Zn285       O288   1.931       .  S
Zn285       O290   2.060       .  S
Zn285       O292   2.062       .  S
Zn285       O296   2.031       .  S
Zn286       O288   1.936       .  S
Zn286       O291   2.070       .  S
Zn286       O294   2.042       .  S
Zn286       O297   2.060       .  S
Zn287       O288   1.930       .  S
Zn287       O295   2.016       .  S
Zn287       O298   2.032       .  S
Zn287       O299   2.049       .  S
O289        C301   1.265       .  A
O290        C302   1.284       .  A
O291        C303   1.274       .  A
O292        C301   1.272       .  A
O293        C303   1.265       .  A
O294        C302   1.280       .  A
O295        C304   1.278       .  A
O296        C305   1.279       .  A
O297        C304   1.283       .  A
O298        C305   1.280       .  A
O299        C306   1.272       .  A
O300        C306   1.267       .  A
C301        C652   1.458       .  S
C302       C1481   1.505       .  S
C303        C525   1.460       .  S
C304       C1705   1.480       .  S
C305       C1554   1.482       .  S
C307       C1490   1.494       .  S
C307        C308   1.413       .  A
C307        C312   1.401       .  A
C308        C309   1.414       .  A
C308        H313   1.083       .  S
C309        C310   1.408   1_565  A
C310        C311   1.406       .  A
C310        H314   1.084       .  S
C311       C1449   1.484       .  S
C311        C312   1.399   1_545  A
C312        H315   1.083       .  S
Zn316       O320   1.938       .  S
Zn316       O321   2.003       .  S
Zn316       O325   1.994       .  S
Zn316       O332   1.978       .  S
Zn317       O320   1.935       .  S
Zn317       O322   1.994       .  S
Zn317       O324   1.983       .  S
Zn317       O328   1.949       .  S
Zn318       O320   1.943       .  S
Zn318       O323   2.004       .  S
Zn318       O326   2.007       .  S
Zn318       O329   1.972       .  S
Zn319       O320   1.973       .  S
Zn319       O327   2.075       .  S
Zn319       O330   2.078       .  S
Zn319       O331   2.074       .  S
O321        C333   1.271       .  A
O322        C334   1.269       .  A
O323        C335   1.270       .  A
O324        C333   1.267       .  A
O325        C335   1.270       .  A
O326        C334   1.270       .  A
O327        C336   1.282       .  A
O328        C337   1.265       .  A
O329        C336   1.272       .  A
O330        C337   1.281       .  A
O331        C338   1.281       .  A
O332        C338   1.271       .  A
C334        C673   1.463       .  S
C335        C507   1.461       .  S
C336       C1458   1.489       .  S
C337       C1618   1.481       .  S
C338       C1801   1.486       .  S
Zn339       O343   1.982       .  S
Zn339       O344   2.102       .  S
Zn339       O348   2.087       .  S
Zn339       O355   2.110       .  S
Zn340       O343   1.942       .  S
Zn340       O345   2.025       .  S
Zn340       O347   1.954       .  S
Zn340       O351   2.000       .  S
Zn341       O343   1.941       .  S
Zn341       O346   1.966       .  S
Zn341       O349   2.000       .  S
Zn341       O352   2.009       .  S
Zn342       O343   1.938       .  S
Zn342       O350   2.010       .  S
Zn342       O353   2.012       .  S
Zn342       O354   1.977       .  S
O344        C356   1.283       .  A
O345        C357   1.270       .  A
O346        C358   1.270       .  A
O347        C356   1.269       .  A
O348        C358   1.284       .  A
O349        C357   1.268       .  A
O350        C359   1.271       .  A
O351        C360   1.271       .  A
O352        C359   1.270       .  A
O353        C360   1.272       .  A
O354        C361   1.270       .  A
O355        C361   1.286       .  A
C356       C1577   1.498       .  S
C358       C1746   1.479       .  S
C359        C461   1.457       .  S
C360        C593   1.463       .  S
C361       C1682   1.490       .  S
Zn362       O366   1.828       .  S
Zn362       O367   1.868       .  S
Zn362       O371   1.888       .  S
Zn362       O378   1.885       .  S
Zn363       O366   2.012       .  S
Zn363       O368   2.047       .  S
Zn363       O370   2.121       .  S
Zn363       O374   2.055       .  S
Zn364       O366   1.998       .  S
Zn364       O369   2.118       .  S
Zn364       O372   2.038       .  S
Zn364       O375   2.027       .  S
Zn365       O366   1.998       .  S
Zn365       O373   2.028       .  S
Zn365       O376   2.024       .  S
Zn365       O377   2.121       .  S
O367        C379   1.255       .  A
O368        C380   1.281       .  A
O369        C381   1.272       .  A
O370        C379   1.272       .  A
O371        C381   1.257       .  A
O372        C380   1.279       .  A
O373        C382   1.278       .  A
O374        C383   1.282       .  A
O375        C382   1.280       .  A
O376        C383   1.278       .  A
O377        C384   1.272       .  A
O378        C384   1.256       .  A
C379        C616   1.474       .  S
C380       C1650   1.479       .  S
C381        C422   1.477       .  S
C382       C1769   1.483       .  S
C383       C1522   1.478       .  S
C385       C1417   1.485       .  S
C385        C386   1.408       .  A
C385        C390   1.396       .  A
C386        C387   1.416       .  A
C386        H391   1.082       .  S
C387        C388   1.410       .  A
C388        C389   1.403       .  A
C388        H392   1.084       .  S
C389       C1385   1.476       .  S
C389        C390   1.393       .  A
C390        H393   1.085       .  S
C394       C1321   1.484       .  S
C394        C395   1.409       .  A
C394        C399   1.398       .  A
C395        C396   1.415       .  A
C395        H400   1.083       .  S
C396        C397   1.415       .  A
C397        C398   1.405       .  A
C397        H401   1.083       .  S
C398       C1353   1.482       .  S
C398        C399   1.397       .  A
C399        H402   1.085       .  S
Zn403       O407   1.826       .  S
Zn403       O408   1.875       .  S
Zn403       O412   1.892       .  S
Zn403       O419   1.879       .  S
Zn404       O407   2.000       .  S
Zn404       O409   2.021       .  S
Zn404       O411   2.117       .  S
Zn404       O415   2.046       .  S
Zn405       O407   1.999       .  S
Zn405       O410   2.114       .  S
Zn405       O413   2.040       .  S
Zn405       O416   2.024       .  S
Zn406       O407   1.999       .  S
Zn406       O414   2.043       .  S
Zn406       O417   2.034       .  S
Zn406       O418   2.100       .  S
O408        C420   1.256       .  A
O409        C421   1.278       .  A
O410        C422   1.271       .  A
O411        C420   1.271       .  A
O412        C422   1.257       .  A
O413        C421   1.281       .  A
O414        C423   1.280       .  A
O415        C424   1.281       .  A
O416        C423   1.280       .  A
O417        C424   1.279       .  A
O418        C425   1.271       .  A
O419        C425   1.257       .  A
C421       C1426   1.482       .  S
C423       C1289   1.481       .  S
C424       C1362   1.480       .  S
C425        C621   1.468       .  S
C426       C1298   1.484       .  S
C426        C427   1.406       .  A
C426        C431   1.398       .  A
C427        C428   1.408       .  A
C427        H432   1.084       .  S
C428        C429   1.415       .  A
C429        C430   1.417       .  A
C429        H433   1.082       .  S
C430       C1257   1.497       .  S
C430        C431   1.401       .  A
C431        H434   1.085       .  S
C435       C1193   1.485       .  S
C435        C436   1.400       .  A
C435        C440   1.408       .  A
C436        C437   1.400       .  A
C436        H441   1.085       .  S
C437       C1234   1.487       .  S
C437        C438   1.409       .  A
C438        C439   1.410       .  A
C438        H442   1.084       .  S
C439        C440   1.409       .  A
C440        H443   1.084       .  S
Zn444       O448   1.935       .  S
Zn444       O449   2.068       .  S
Zn444       O453   2.042       .  S
Zn444       O460   2.032       .  S
Zn445       O448   1.851       .  S
Zn445       O450   1.964       .  S
Zn445       O452   1.965       .  S
Zn445       O456   1.975       .  S
Zn446       O448   1.923       .  S
Zn446       O451   2.017       .  S
Zn446       O454   2.053       .  S
Zn446       O457   2.026       .  S
Zn447       O448   1.925       .  S
Zn447       O455   2.048       .  S
Zn447       O458   2.069       .  S
Zn447       O459   2.060       .  S
O449        C461   1.274       .  A
O450        C462   1.268       .  A
O451        C463   1.280       .  A
O452        C461   1.264       .  A
O453        C463   1.281       .  A
O454        C462   1.274       .  A
O455        C464   1.281       .  A
O456        C465   1.265       .  A
O457        C464   1.278       .  A
O458        C465   1.274       .  A
O459        C466   1.283       .  A
O460        C466   1.279       .  A
C463       C1394   1.482       .  S
C464       C1161   1.479       .  S
C465        C595   1.463       .  S
C466       C1225   1.483       .  S
C467       C1170   1.485       .  S
C467        C468   1.396       .  A
C467        C472   1.406       .  A
C468        C469   1.398       .  A
C468        H473   1.084       .  S
C469       C1129   1.486       .  S
C469        C470   1.409       .  A
C470        C471   1.414       .  A
C470        H474   1.083       .  S
C471        C472   1.415       .  A
C472        H475   1.083       .  S
C476       C1065   1.483       .  S
C476        C477   1.396       .  A
C476        C481   1.402       .  A
C477        C478   1.397       .  A
C477        H482   1.085       .  S
C478       C1097   1.485       .  S
C478        C479   1.408       .  A
C479        C480   1.415       .  A
C479        H483   1.083       .  S
C480        C481   1.411       .  A
C481        H484   1.081       .  S
Zn485       O489   1.950       .  S
Zn485       O490   2.005       .  S
Zn485       O494   1.959       .  S
Zn485       O501   1.992       .  S
Zn486       O489   1.948       .  S
Zn486       O491   1.961       .  S
Zn486       O493   2.006       .  S
Zn486       O497   2.008       .  S
Zn487       O489   1.985       .  S
Zn487       O492   2.082       .  S
Zn487       O495   2.091       .  S
Zn487       O498   2.096       .  S
Zn488       O489   1.940       .  S
Zn488       O496   1.976       .  S
Zn488       O499   2.003       .  S
Zn488       O500   2.004       .  S
O490        C502   1.270       .  A
O491        C503   1.270       .  A
O492        C504   1.281       .  A
O493        C502   1.270       .  A
O494        C504   1.269       .  A
O495        C503   1.284       .  A
O496        C505   1.269       .  A
O497        C506   1.270       .  A
O498        C505   1.283       .  A
O499        C506   1.272       .  A
O500        C507   1.270       .  A
O501        C507   1.269       .  A
C503       C1138   1.479       .  S
C504       C1106   1.477       .  S
C505       C1266   1.486       .  S
C506        C672   1.465       .  S
Zn508       O512   1.946       .  S
Zn508       O513   2.016       .  S
Zn508       O517   1.961       .  S
Zn508       O524   1.994       .  S
Zn509       O512   1.941       .  S
Zn509       O514   1.963       .  S
Zn509       O516   2.007       .  S
Zn509       O520   1.995       .  S
Zn510       O512   1.988       .  S
Zn510       O515   2.091       .  S
Zn510       O518   2.086       .  S
Zn510       O521   2.096       .  S
Zn511       O512   1.951       .  S
Zn511       O519   1.963       .  S
Zn511       O522   2.016       .  S
Zn511       O523   1.993       .  S
O513        C525   1.269       .  A
O514        C526   1.269       .  A
O515        C527   1.282       .  A
O516        C525   1.269       .  A
O517        C527   1.270       .  A
O518        C526   1.284       .  A
O519        C528   1.269       .  A
O520        C529   1.268       .  A
O521        C528   1.282       .  A
O522        C529   1.270       .  A
O523        C530   1.269       .  A
O524        C530   1.270       .  A
C526       C1074   1.482       .  S
C527       C1202   1.503       .  S
C528       C1330   1.498       .  S
C530        C653   1.456       .  S
C531       C1010   1.476       .  S
C531        C532   1.396   1_545  A
C531        C536   1.406       .  A
C532        C533   1.396       .  A
C532        H537   1.085       .  S
C533       C1033   1.477       .  S
C533        C534   1.404       .  A
C534        C535   1.407       .  A
C534        H538   1.083       .  S
C535        C536   1.409   1_565  A
C536        H539   1.083       .  S
C540        C969   1.485       .  S
C540        C541   1.402   1_545  A
C540        C545   1.404       .  A
C541        C542   1.403       .  A
C541        H546   1.084       .  S
C542        C937   1.492       .  S
C542        C543   1.412       .  A
C543        C544   1.412       .  A
C543        H547   1.083       .  S
C544        C545   1.407   1_565  A
C545        H548   1.084       .  S
C549        C873   1.496       .  S
C549        C550   1.413       .  A
C549        C554   1.401   1_455  A
C550        C551   1.416   1_455  A
C550        H555   1.080       .  S
C551        C552   1.417       .  A
C552        C553   1.404       .  A
C552        H556   1.083       .  S
C553        C905   1.484       .  S
C553        C554   1.394       .  A
C554        H557   1.085       .  S
C558        C809   1.479       .  S
C558        C559   1.401       .  A
C558        C563   1.397   1_655  A
C559        C560   1.410   1_655  A
C559        H564   1.083       .  S
C560        C561   1.417   1_545  A
C561        C562   1.414       .  A
C561        H565   1.083       .  S
C562        C841   1.491       .  S
C562        C563   1.399   1_565  A
C563        H566   1.084       .  S
C567        C777   1.489       .  S
C567        C568   1.412       .  A
C567        C572   1.398   1_655  A
C568        C569   1.418       .  A
C568        H573   1.088       .  S
C569        C570   1.412   1_655  A
C570        C571   1.403       .  A
C570        H574   1.099       .  S
C571        C745   1.482       .  S
C571        C572   1.399       .  A
C572        H575   1.079       .  S
Zn576       O580   1.939       .  S
Zn576       O581   2.002       .  S
Zn576       O585   1.994       .  S
Zn576       O592   1.954       .  S
Zn577       O580   1.937       .  S
Zn577       O582   1.992       .  S
Zn577       O584   1.994       .  S
Zn577       O588   1.984       .  S
Zn578       O580   1.950       .  S
Zn578       O583   2.034       .  S
Zn578       O586   2.003       .  S
Zn578       O589   1.967       .  S
Zn579       O580   1.978       .  S
Zn579       O587   2.088       .  S
Zn579       O590   2.098       .  S
Zn579       O591   2.084       .  S
O581        C593   1.269       .  A
O582        C594   1.269       .  A
O583        C595   1.271       .  A
O584        C593   1.269       .  A
O585        C595   1.268       .  A
O586        C594   1.271       .  A
O587        C596   1.284       .  A
O588        C597   1.272       .  A
O589        C596   1.269       .  A
O590        C597   1.283       .  A
O591        C598   1.284       .  A
O592        C598   1.267       .  A
C596        C754   1.486       .  S
C597        C850   1.496       .  S
C598       C1042   1.482       .  S
Zn599       O603   1.827       .  S
Zn599       O604   1.878       .  S
Zn599       O608   1.887       .  S
Zn599       O615   1.881       .  S
Zn600       O603   2.005       .  S
Zn600       O605   2.038       .  S
Zn600       O607   2.114       .  S
Zn600       O611   2.045       .  S
Zn601       O603   1.996       .  S
Zn601       O606   2.108       .  S
Zn601       O609   2.037       .  S
Zn601       O612   2.025       .  S
Zn602       O603   2.002       .  S
Zn602       O610   2.054       .  S
Zn602       O613   2.041       .  S
Zn602       O614   2.096       .  S
O604        C616   1.256       .  A
O605        C617   1.281       .  A
O606        C618   1.271       .  A
O607        C616   1.270       .  A
O608        C618   1.257       .  A
O609        C617   1.280       .  A
O610        C619   1.282       .  A
O611        C620   1.281       .  A
O612        C619   1.279       .  A
O613        C620   1.280       .  A
O614        C621   1.270       .  A
O615        C621   1.257       .  A
C617        C818   1.478       .  S
C619        C914   1.486       .  S
C620        C978   1.485       .  S
C622        C681   1.490       .  S
C622        C623   1.409       .  A
C622        C627   1.399       .  A
C623        C624   1.415       .  A
C623        H628   1.082       .  S
C624        C625   1.418   1_445  A
C625        C626   1.410       .  A
C625        H629   1.083       .  S
C626        C713   1.488       .  S
C626        C627   1.396   1_665  A
C627        H630   1.085       .  S
Zn631       O635   1.943       .  S
Zn631       O636   1.991       .  S
Zn631       O640   1.974       .  S
Zn631       O647   1.995       .  S
Zn632       O635   1.951       .  S
Zn632       O637   1.977       .  S
Zn632       O639   2.035       .  S
Zn632       O643   2.031       .  S
Zn633       O635   1.981       .  S
Zn633       O638   2.107       .  S
Zn633       O641   2.101       .  S
Zn633       O644   2.112       .  S
Zn634       O635   1.938       .  S
Zn634       O642   1.959       .  S
Zn634       O645   1.989       .  S
Zn634       O646   1.981       .  S
O636        C648   1.268       .  A
O637        C649   1.273       .  A
O638        C650   1.284       .  A
O639        C648   1.273       .  A
O640        C650   1.272       .  A
O641        C649   1.285       .  A
O642        C651   1.269       .  A
O643        C652   1.273       .  A
O644        C651   1.286       .  A
O645        C652   1.268       .  A
O646        C653   1.267       .  A
O647        C653   1.269       .  A
C649        C722   1.498       .  S
C650        C786   1.507       .  S
C651        C946   1.493       .  S
Zn654       O658   1.939       .  S
Zn654       O659   1.983       .  S
Zn654       O663   2.000       .  S
Zn654       O670   1.947       .  S
Zn655       O658   1.951       .  S
Zn655       O660   2.028       .  S
Zn655       O662   2.015       .  S
Zn655       O666   1.977       .  S
Zn656       O658   1.934       .  S
Zn656       O661   1.998       .  S
Zn656       O664   1.981       .  S
Zn656       O667   1.930       .  S
Zn657       O658   1.996       .  S
Zn657       O665   2.102       .  S
Zn657       O668   2.091       .  S
Zn657       O669   2.108       .  S
O659        C671   1.268       .  A
O660        C672   1.272       .  A
O661        C673   1.268       .  A
O662        C671   1.272       .  A
O663        C673   1.269       .  A
O664        C672   1.267       .  A
O665        C674   1.283       .  A
O666        C675   1.271       .  A
O667        C674   1.267       .  A
O668        C675   1.283       .  A
O669        C676   1.284       .  A
O670        C676   1.266       .  A
C674       C1001   1.495       .  S
C675        C882   1.481       .  S
C676        C690   1.481       .  S
C677        C678   1.406       .  A
C677        C682   1.412       .  A
C677        H687   1.082       .  S
C678        C683   1.497       .  S
C678        C679   1.419       .  A
C679        C680   1.408       .  A
C679        C684   1.521       .  S
C680        C681   1.405       .  A
C680        H685   1.083   1_545  S
C681        C682   1.418       .  A
C682        C686   1.520       .  S
C683        C688   1.424       .  A
C683        C692   1.400       .  A
C684        F700   1.381       .  S
C684        F701   1.383       .  S
C684        F702   1.384   1_545  S
C686        F697   1.384       .  S
C686        F698   1.381       .  S
C686        F699   1.384   1_455  S
C688        C689   1.416       .  A
C688        C693   1.519       .  S
C689        C690   1.403       .  A
C689        H694   1.083       .  S
C690        C691   1.418       .  A
C691        C692   1.404       .  A
C691        C695   1.520       .  S
C692        H696   1.082       .  S
C693        F706   1.384       .  S
C693        F707   1.381       .  S
C693        F708   1.383       .  S
C695        F703   1.381       .  S
C695        F704   1.384       .  S
C695        F705   1.384       .  S
C709        C710   1.404       .  A
C709        C714   1.410       .  A
C709        H719   1.083       .  S
C710        C715   1.496       .  S
C710        C711   1.419       .  A
C711        C712   1.412       .  A
C711        C716   1.519       .  S
C712        C713   1.403       .  A
C712        H717   1.083       .  S
C713        C714   1.417       .  A
C714        C718   1.518   1_565  S
C715        C720   1.415       .  A
C715        C724   1.407       .  A
C716        F732   1.382       .  S
C716        F733   1.383       .  S
C716        F734   1.384       .  S
C718        F729   1.383       .  S
C718        F730   1.384       .  S
C718        F731   1.382       .  S
C720        C721   1.406       .  A
C720        C725   1.522       .  S
C721        C722   1.410       .  A
C721        H726   1.083       .  S
C722        C723   1.420       .  A
C723        C724   1.416       .  A
C723        C727   1.517       .  S
C724        H728   1.083       .  S
C725        F738   1.385       .  S
C725        F739   1.382       .  S
C725        F740   1.383       .  S
C727        F735   1.383       .  S
C727        F736   1.384       .  S
C727        F737   1.384       .  S
C741        C742   1.404       .  A
C741        C746   1.408       .  A
C741        H751   1.083       .  S
C742        C747   1.489       .  S
C742        C743   1.418       .  A
C743        C744   1.408       .  A
C743        C748   1.519       .  S
C744        C745   1.403       .  A
C744        H749   1.084   1_455  S
C745        C746   1.416       .  A
C746        C750   1.518       .  S
C747        C752   1.419       .  A
C747        C756   1.398       .  A
C748        F764   1.382       .  S
C748        F765   1.383       .  S
C748        F766   1.385   1_455  S
C750        F761   1.384       .  S
C750        F762   1.382       .  S
C750        F763   1.383       .  S
C752        C753   1.412       .  A
C752        C757   1.518       .  S
C753        C754   1.403       .  A
C753        H758   1.082       .  S
C754        C755   1.424       .  A
C755        C756   1.404       .  A
C755        C759   1.521       .  S
C756        H760   1.083       .  S
C757        F770   1.384       .  S
C757        F771   1.382       .  S
C757        F772   1.383       .  S
C759        F767   1.383       .  S
C759        F768   1.384       .  S
C759        F769   1.385       .  S
C773        C774   1.404       .  A
C773        C778   1.411       .  A
C773        H783   1.085       .  S
C774        C779   1.495       .  S
C774        C775   1.418       .  A
C775        C776   1.410       .  A
C775        C780   1.518       .  S
C776        C777   1.402       .  A
C776        H781   1.085       .  S
C777        C778   1.418       .  A
C778        C782   1.517   1_655  S
C779        C784   1.412       .  A
C779        C788   1.407       .  A
C780        F796   1.382       .  S
C780        F797   1.382       .  S
C780        F798   1.384       .  S
C782        F793   1.383       .  S
C782        F794   1.385       .  S
C782        F795   1.382       .  S
C784        C785   1.405       .  A
C784        C789   1.522       .  S
C785        C786   1.414       .  A
C785        H790   1.082       .  S
C786        C787   1.424       .  A
C787        C788   1.419       .  A
C787        C791   1.517       .  S
C788        H792   1.083       .  S
C789        F802   1.384       .  S
C789        F803   1.382       .  S
C789        F804   1.383       .  S
C791        F799   1.384       .  S
C791        F800   1.383       .  S
C791        F801   1.383       .  S
C805        C806   1.403       .  A
C805        C810   1.407       .  A
C805        H815   1.083       .  S
C806        C811   1.484       .  S
C806        C807   1.416       .  A
C807        C808   1.407       .  A
C807        C812   1.518       .  S
C808        C809   1.403       .  A
C808        H813   1.083       .  S
C809        C810   1.415       .  A
C810        C814   1.518       .  S
C811        C816   1.418       .  A
C811        C820   1.399       .  A
C812        F828   1.382       .  S
C812        F829   1.382       .  S
C812        F830   1.385   1_545  S
C814        F825   1.385       .  S
C814        F826   1.382       .  S
C814        F827   1.383   1_655  S
C816        C817   1.411       .  A
C816        C821   1.519       .  S
C817        C818   1.402       .  A
C817        H822   1.083       .  S
C818        C819   1.420       .  A
C819        C820   1.406       .  A
C819        C823   1.521       .  S
C820        H824   1.083       .  S
C821        F834   1.384       .  S
C821        F835   1.383       .  S
C821        F836   1.382       .  S
C823        F831   1.384       .  S
C823        F832   1.382       .  S
C823        F833   1.385       .  S
C837        C838   1.403       .  A
C837        C842   1.411       .  A
C837        H847   1.083       .  S
C838        C843   1.495       .  S
C838        C839   1.419       .  A
C839        C840   1.410       .  A
C839        C844   1.519       .  S
C840        C841   1.403       .  A
C840        H845   1.083       .  S
C841        C842   1.422       .  A
C842        C846   1.520   1_565  S
C843        C848   1.414       .  A
C843        C852   1.407       .  A
C844        F860   1.382       .  S
C844        F861   1.383       .  S
C844        F862   1.384       .  S
C846        F857   1.385       .  S
C846        F858   1.382       .  S
C846        F859   1.384       .  S
C848        C849   1.406       .  A
C848        C853   1.520       .  S
C849        C850   1.409       .  A
C849        H854   1.083       .  S
C850        C851   1.420       .  A
C851        C852   1.416       .  A
C851        C855   1.516       .  S
C852        H856   1.083       .  S
C853        F866   1.385       .  S
C853        F867   1.382       .  S
C853        F868   1.383       .  S
C855        F863   1.383       .  S
C855        F864   1.383       .  S
C855        F865   1.385       .  S
C869        C870   1.404       .  A
C869        C874   1.412       .  A
C869        H879   1.083       .  S
C870        C875   1.491       .  S
C870        C871   1.415       .  A
C871        C872   1.407       .  A
C871        C876   1.521       .  S
C872        C873   1.409       .  A
C872        H877   1.083   1_455  S
C873        C874   1.421       .  A
C874        C878   1.519       .  S
C875        C880   1.421       .  A
C875        C884   1.399       .  A
C876        F892   1.381       .  S
C876        F893   1.383       .  S
C876        F894   1.385   1_455  S
C878        F889   1.385       .  S
C878        F890   1.381       .  S
C878        F891   1.383       .  S
C880        C881   1.414       .  A
C880        C885   1.518       .  S
C881        C882   1.404       .  A
C881        H886   1.083       .  S
C882        C883   1.418       .  A
C883        C884   1.403       .  A
C883        C887   1.519       .  S
C884        H888   1.083       .  S
C885        F898   1.385       .  S
C885        F899   1.382       .  S
C885        F900   1.383       .  S
C887        F895   1.382       .  S
C887        F896   1.384       .  S
C887        F897   1.385       .  S
C901        C902   1.405       .  A
C901        C906   1.409       .  A
C901        H911   1.082       .  S
C902        C907   1.496       .  S
C902        C903   1.421       .  A
C903        C904   1.410       .  A
C903        C908   1.519       .  S
C904        C905   1.402       .  A
C904        H909   1.083       .  S
C905        C906   1.414       .  A
C906        C910   1.517   1_655  S
C907        C912   1.418       .  A
C907        C916   1.408       .  A
C908        F924   1.382       .  S
C908        F925   1.383       .  S
C908        F926   1.384       .  S
C910        F921   1.384       .  S
C910        F922   1.382       .  S
C910        F923   1.384       .  S
C912        C913   1.408       .  A
C912        C917   1.522       .  S
C913        C914   1.406       .  A
C913        H918   1.083       .  S
C914        C915   1.414       .  A
C915        C916   1.413       .  A
C915        C919   1.516       .  S
C916        H920   1.083       .  S
C917        F930   1.385       .  S
C917        F931   1.381       .  S
C917        F932   1.383       .  S
C919        F927   1.384       .  S
C919        F928   1.383       .  S
C919        F929   1.383       .  S
C933        C934   1.403       .  A
C933        C938   1.410       .  A
C933        H943   1.083       .  S
C934        C939   1.498       .  S
C934        C935   1.421       .  A
C935        C936   1.413       .  A
C935        C940   1.520       .  S
C936        C937   1.404       .  A
C936        H941   1.083       .  S
C937        C938   1.418       .  A
C938        C942   1.518       .  S
C939        C944   1.416       .  A
C939        C948   1.408       .  A
C940        F956   1.382       .  S
C940        F957   1.383       .  S
C940        F958   1.385       .  S
C942        F953   1.384       .  S
C942        F954   1.385       .  S
C942        F955   1.381       .  S
C944        C945   1.407       .  A
C944        C949   1.522       .  S
C945        C946   1.409       .  A
C945        H950   1.083       .  S
C946        C947   1.416       .  A
C947        C948   1.416       .  A
C947        C951   1.516       .  S
C948        H952   1.083       .  S
C949        F962   1.385       .  S
C949        F963   1.382       .  S
C949        F964   1.383       .  S
C951        F959   1.384       .  S
C951        F960   1.383       .  S
C951        F961   1.384       .  S
C965        C966   1.403       .  A
C965        C970   1.409       .  A
C965        H975   1.083       .  S
C966        C971   1.491       .  S
C966        C967   1.419       .  A
C967        C968   1.410       .  A
C967        C972   1.520       .  S
C968        C969   1.403       .  A
C968        H973   1.083       .  S
C969        C970   1.416       .  A
C970        C974   1.518       .  S
C971        C976   1.417       .  A
C971        C980   1.405       .  A
C972        F988   1.382       .  S
C972        F989   1.382       .  S
C972        F990   1.385       .  S
C974        F985   1.384       .  S
C974        F986   1.381       .  S
C974        F987   1.383       .  S
C976        C977   1.412       .  A
C976        C981   1.521       .  S
C977        C978   1.408       .  A
C977        H982   1.083       .  S
C978        C979   1.412       .  A
C979        C980   1.410       .  A
C979        C983   1.515       .  S
C980        H984   1.083       .  S
C981        F994   1.384       .  S
C981        F995   1.382       .  S
C981        F996   1.382       .  S
C983        F991   1.384       .  S
C983        F992   1.384       .  S
C983        F993   1.382       .  S
C997        C998   1.407       .  A
C997       C1002   1.415       .  A
C997       H1007   1.083       .  S
C998       C1003   1.485       .  S
C998        C999   1.411       .  A
C999       C1000   1.398       .  A
C999       C1004   1.524       .  S
C1000      C1001   1.412       .  A
C1000      H1005   1.082       .  S
C1001      C1002   1.418       .  A
C1002      C1006   1.515       .  S
C1003      C1008   1.418       .  A
C1003      C1012   1.402       .  A
C1004      F1020   1.382       .  S
C1004      F1021   1.383       .  S
C1004      F1022   1.385       .  S
C1006      F1017   1.385       .  S
C1006      F1018   1.383       .  S
C1006      F1019   1.383       .  S
C1008      C1009   1.407       .  A
C1008      C1013   1.520       .  S
C1009      C1010   1.402       .  A
C1009      H1014   1.083       .  S
C1010      C1011   1.414       .  A
C1011      C1012   1.405       .  A
C1011      C1015   1.517       .  S
C1012      H1016   1.083       .  S
C1013      F1026   1.385       .  S
C1013      F1027   1.382       .  S
C1013      F1028   1.383       .  S
C1015      F1023   1.382       .  S
C1015      F1024   1.383       .  S
C1015      F1025   1.384       .  S
C1029      C1030   1.404       .  A
C1029      C1034   1.407       .  A
C1029      H1039   1.083       .  S
C1030      C1035   1.481       .  S
C1030      C1031   1.414       .  A
C1031      C1032   1.405       .  A
C1031      C1036   1.519       .  S
C1032      C1033   1.403       .  A
C1032      H1037   1.083       .  S
C1033      C1034   1.415       .  A
C1034      C1038   1.519       .  S
C1035      C1040   1.418       .  A
C1035      C1044   1.396       .  A
C1036      F1052   1.382       .  S
C1036      F1053   1.382       .  S
C1036      F1054   1.384       .  S
C1038      F1049   1.385       .  S
C1038      F1050   1.382       .  S
C1038      F1051   1.383   1_565  S
C1040      C1041   1.411       .  A
C1040      C1045   1.519       .  S
C1041      C1042   1.404       .  A
C1041      H1046   1.083       .  S
C1042      C1043   1.425       .  A
C1043      C1044   1.400       .  A
C1043      C1047   1.522       .  S
C1044      H1048   1.084       .  S
C1045      F1058   1.385       .  S
C1045      F1059   1.382       .  S
C1045      F1060   1.382       .  S
C1047      F1055   1.383       .  S
C1047      F1056   1.384       .  S
C1047      F1057   1.385       .  S
C1061      C1062   1.404       .  A
C1061      C1066   1.409       .  A
C1061      H1071   1.083       .  S
C1062      C1067   1.481       .  S
C1062      C1063   1.414       .  A
C1063      C1064   1.401       .  A
C1063      C1068   1.521       .  S
C1064      C1065   1.405       .  A
C1064      H1069   1.082       .  S
C1065      C1066   1.417       .  A
C1066      C1070   1.519       .  S
C1067      C1072   1.416       .  A
C1067      C1076   1.396       .  A
C1068      F1084   1.381       .  S
C1068      F1085   1.382       .  S
C1068      F1086   1.385       .  S
C1070      F1081   1.384       .  S
C1070      F1082   1.381       .  S
C1070      F1083   1.383       .  S
C1072      C1073   1.411       .  A
C1072      C1077   1.518       .  S
C1073      C1074   1.405       .  A
C1073      H1078   1.083       .  S
C1074      C1075   1.424       .  A
C1075      C1076   1.400       .  A
C1075      C1079   1.523       .  S
C1076      H1080   1.084       .  S
C1077      F1090   1.384       .  S
C1077      F1091   1.382       .  S
C1077      F1092   1.382       .  S
C1079      F1087   1.383       .  S
C1079      F1088   1.383       .  S
C1079      F1089   1.385       .  S
C1093      C1094   1.397       .  A
C1093      C1098   1.402       .  A
C1093      H1103   1.085       .  S
C1094      C1099   1.483       .  S
C1094      C1095   1.418       .  A
C1095      C1096   1.411       .  A
C1095      C1100   1.519       .  S
C1096      C1097   1.403       .  A
C1096      H1101   1.083       .  S
C1097      C1098   1.423       .  A
C1098      C1102   1.520       .  S
C1099      C1104   1.418       .  A
C1099      C1108   1.397       .  A
C1100      F1116   1.383       .  S
C1100      F1117   1.382       .  S
C1100      F1118   1.384       .  S
C1102      F1113   1.383       .  S
C1102      F1114   1.384       .  S
C1102      F1115   1.383       .  S
C1104      C1105   1.413       .  A
C1104      C1109   1.517       .  S
C1105      C1106   1.404       .  A
C1105      H1110   1.083       .  S
C1106      C1107   1.421       .  A
C1107      C1108   1.400       .  A
C1107      C1111   1.520       .  S
C1108      H1112   1.085       .  S
C1109      F1122   1.384       .  S
C1109      F1123   1.383       .  S
C1109      F1124   1.382       .  S
C1111      F1119   1.384       .  S
C1111      F1120   1.383       .  S
C1111      F1121   1.383       .  S
C1125      C1126   1.399       .  A
C1125      C1130   1.404       .  A
C1125      H1135   1.084       .  S
C1126      C1131   1.484       .  S
C1126      C1127   1.418       .  A
C1127      C1128   1.411       .  A
C1127      C1132   1.520       .  S
C1128      C1129   1.404       .  A
C1128      H1133   1.083       .  S
C1129      C1130   1.420       .  A
C1130      C1134   1.519       .  S
C1131      C1136   1.419       .  A
C1131      C1140   1.397       .  A
C1132      F1148   1.383       .  S
C1132      F1149   1.380       .  S
C1132      F1150   1.385       .  S
C1134      F1145   1.381       .  S
C1134      F1146   1.385       .  S
C1134      F1147   1.384       .  S
C1136      C1137   1.413       .  A
C1136      C1141   1.518       .  S
C1137      C1138   1.404       .  A
C1137      H1142   1.083       .  S
C1138      C1139   1.421       .  A
C1139      C1140   1.400       .  A
C1139      C1143   1.520       .  S
C1140      H1144   1.085       .  S
C1141      F1154   1.384       .  S
C1141      F1155   1.383       .  S
C1141      F1156   1.381       .  S
C1143      F1151   1.384       .  S
C1143      F1152   1.383       .  S
C1143      F1153   1.383       .  S
C1157      C1158   1.407       .  A
C1157      C1162   1.411       .  A
C1157      H1167   1.083       .  S
C1158      C1163   1.489       .  S
C1158      C1159   1.417       .  A
C1159      C1160   1.408       .  A
C1159      C1164   1.522       .  S
C1160      C1161   1.404       .  A
C1160      H1165   1.083       .  S
C1161      C1162   1.411       .  A
C1162      C1166   1.514       .  S
C1163      C1168   1.417       .  A
C1163      C1172   1.403       .  A
C1164      F1180   1.382       .  S
C1164      F1181   1.381       .  S
C1164      F1182   1.385       .  S
C1166      F1177   1.384       .  S
C1166      F1178   1.383       .  S
C1166      F1179   1.384       .  S
C1168      C1169   1.410       .  A
C1168      C1173   1.519       .  S
C1169      C1170   1.405       .  A
C1169      H1174   1.083       .  S
C1170      C1171   1.416       .  A
C1171      C1172   1.407       .  A
C1171      C1175   1.519       .  S
C1172      H1176   1.083       .  S
C1173      F1186   1.385       .  S
C1173      F1187   1.382       .  S
C1173      F1188   1.381       .  S
C1175      F1183   1.385       .  S
C1175      F1184   1.382       .  S
C1175      F1185   1.382       .  S
C1189      C1190   1.404       .  A
C1189      C1194   1.410       .  A
C1189      H1199   1.083       .  S
C1190      C1195   1.488       .  S
C1190      C1191   1.415       .  A
C1191      C1192   1.407       .  A
C1191      C1196   1.519       .  S
C1192      C1193   1.404       .  A
C1192      H1197   1.083       .  S
C1193      C1194   1.417       .  A
C1194      C1198   1.518       .  S
C1195      C1200   1.411       .  A
C1195      C1204   1.405       .  A
C1196      F1212   1.382       .  S
C1196      F1213   1.382       .  S
C1196      F1214   1.385       .  S
C1198      F1209   1.382       .  S
C1198      F1210   1.385       .  S
C1198      F1211   1.383       .  S
C1200      C1201   1.403       .  A
C1200      C1205   1.523       .  S
C1201      C1202   1.415       .  A
C1201      H1206   1.081       .  S
C1202      C1203   1.423       .  A
C1203      C1204   1.415       .  A
C1203      C1207   1.517       .  S
C1204      H1208   1.083       .  S
C1205      F1218   1.385       .  S
C1205      F1219   1.382       .  S
C1205      F1220   1.382       .  S
C1207      F1215   1.383       .  S
C1207      F1216   1.383       .  S
C1207      F1217   1.385       .  S
C1221      C1222   1.400       .  A
C1221      C1226   1.407       .  A
C1221      H1231   1.083       .  S
C1222      C1227   1.491       .  S
C1222      C1223   1.420       .  A
C1223      C1224   1.414       .  A
C1223      C1228   1.519       .  S
C1224      C1225   1.403       .  A
C1224      H1229   1.083       .  S
C1225      C1226   1.419       .  A
C1226      C1230   1.519       .  S
C1227      C1232   1.419       .  A
C1227      C1236   1.402       .  A
C1228      F1244   1.382       .  S
C1228      F1245   1.382       .  S
C1228      F1246   1.384       .  S
C1230      F1241   1.384       .  S
C1230      F1242   1.382       .  S
C1230      F1243   1.384       .  S
C1232      C1233   1.412       .  A
C1232      C1237   1.519       .  S
C1233      C1234   1.404       .  A
C1233      H1238   1.083       .  S
C1234      C1235   1.417       .  A
C1235      C1236   1.408       .  A
C1235      C1239   1.518       .  S
C1236      H1240   1.083       .  S
C1237      F1250   1.385       .  S
C1237      F1251   1.382       .  S
C1237      F1252   1.382       .  S
C1239      F1247   1.384       .  S
C1239      F1248   1.383       .  S
C1239      F1249   1.381       .  S
C1253      C1254   1.406       .  A
C1253      C1258   1.413       .  A
C1253      H1263   1.083       .  S
C1254      C1259   1.496       .  S
C1254      C1255   1.417       .  A
C1255      C1256   1.410       .  A
C1255      C1260   1.520       .  S
C1256      C1257   1.408       .  A
C1256      H1261   1.083       .  S
C1257      C1258   1.419       .  A
C1258      C1262   1.518       .  S
C1259      C1264   1.421       .  A
C1259      C1268   1.400       .  A
C1260      F1276   1.381       .  S
C1260      F1277   1.383       .  S
C1260      F1278   1.385       .  S
C1262      F1273   1.385       .  S
C1262      F1274   1.380       .  S
C1262      F1275   1.384       .  S
C1264      C1265   1.416       .  A
C1264      C1269   1.518       .  S
C1265      C1266   1.404       .  A
C1265      H1270   1.083       .  S
C1266      C1267   1.421       .  A
C1267      C1268   1.405       .  A
C1267      C1271   1.521       .  S
C1268      H1272   1.083       .  S
C1269      F1282   1.385       .  S
C1269      F1283   1.381       .  S
C1269      F1284   1.382       .  S
C1271      F1279   1.382       .  S
C1271      F1280   1.384       .  S
C1271      F1281   1.385       .  S
C1285      C1286   1.407       .  A
C1285      C1290   1.411       .  A
C1285      H1295   1.083       .  S
C1286      C1291   1.488       .  S
C1286      C1287   1.415       .  A
C1287      C1288   1.405       .  A
C1287      C1292   1.521       .  S
C1288      C1289   1.405       .  A
C1288      H1293   1.083       .  S
C1289      C1290   1.414       .  A
C1290      C1294   1.516       .  S
C1291      C1296   1.417       .  A
C1291      C1300   1.402       .  A
C1292      F1308   1.382       .  S
C1292      F1309   1.382       .  S
C1292      F1310   1.385       .  S
C1294      F1305   1.384       .  S
C1294      F1306   1.383       .  S
C1294      F1307   1.382       .  S
C1296      C1297   1.408       .  A
C1296      C1301   1.518       .  S
C1297      C1298   1.404       .  A
C1297      H1302   1.083       .  S
C1298      C1299   1.420       .  A
C1299      C1300   1.405       .  A
C1299      C1303   1.518       .  S
C1300      H1304   1.085       .  S
C1301      F1314   1.385       .  S
C1301      F1315   1.382       .  S
C1301      F1316   1.382       .  S
C1303      F1311   1.384       .  S
C1303      F1312   1.383       .  S
C1303      F1313   1.382       .  S
C1317      C1318   1.403       .  A
C1317      C1322   1.409       .  A
C1317      H1327   1.083       .  S
C1318      C1323   1.492       .  S
C1318      C1319   1.419       .  A
C1319      C1320   1.410       .  A
C1319      C1324   1.519       .  S
C1320      C1321   1.402       .  A
C1320      H1325   1.083       .  S
C1321      C1322   1.417       .  A
C1322      C1326   1.518       .  S
C1323      C1328   1.413       .  A
C1323      C1332   1.407       .  A
C1324      F1340   1.382       .  S
C1324      F1341   1.382       .  S
C1324      F1342   1.385       .  S
C1326      F1337   1.384       .  S
C1326      F1338   1.382       .  S
C1326      F1339   1.383       .  S
C1328      C1329   1.404       .  A
C1328      C1333   1.522       .  S
C1329      C1330   1.411       .  A
C1329      H1334   1.083       .  S
C1330      C1331   1.420       .  A
C1331      C1332   1.416       .  A
C1331      C1335   1.516       .  S
C1332      H1336   1.083       .  S
C1333      F1346   1.385       .  S
C1333      F1347   1.382       .  S
C1333      F1348   1.382       .  S
C1335      F1343   1.383       .  S
C1335      F1344   1.383       .  S
C1335      F1345   1.384       .  S
C1349      C1350   1.404       .  A
C1349      C1354   1.410       .  A
C1349      H1359   1.083       .  S
C1350      C1355   1.490       .  S
C1350      C1351   1.418       .  A
C1351      C1352   1.407       .  A
C1351      C1356   1.519       .  S
C1352      C1353   1.401       .  A
C1352      H1357   1.083       .  S
C1353      C1354   1.416       .  A
C1354      C1358   1.518       .  S
C1355      C1360   1.417       .  A
C1355      C1364   1.406       .  A
C1356      F1372   1.382       .  S
C1356      F1373   1.382       .  S
C1356      F1374   1.385       .  S
C1358      F1369   1.385       .  S
C1358      F1370   1.382       .  S
C1358      F1371   1.383       .  S
C1360      C1361   1.409       .  A
C1360      C1365   1.521       .  S
C1361      C1362   1.405       .  A
C1361      H1366   1.083       .  S
C1362      C1363   1.412       .  A
C1363      C1364   1.411       .  A
C1363      C1367   1.515       .  S
C1364      H1368   1.083       .  S
C1365      F1378   1.384       .  S
C1365      F1379   1.382       .  S
C1365      F1380   1.383       .  S
C1367      F1375   1.384       .  S
C1367      F1376   1.384       .  S
C1367      F1377   1.383       .  S
C1381      C1382   1.401       .  A
C1381      C1386   1.404       .  A
C1381      H1391   1.083       .  S
C1382      C1387   1.482       .  S
C1382      C1383   1.416       .  A
C1383      C1384   1.406       .  A
C1383      C1388   1.518       .  S
C1384      C1385   1.401       .  A
C1384      H1389   1.083       .  S
C1385      C1386   1.417       .  A
C1386      C1390   1.520       .  S
C1387      C1392   1.414       .  A
C1387      C1396   1.403       .  A
C1388      F1404   1.382       .  S
C1388      F1405   1.382       .  S
C1388      F1406   1.385       .  S
C1390      F1401   1.383       .  S
C1390      F1402   1.385       .  S
C1390      F1403   1.381       .  S
C1392      C1393   1.404       .  A
C1392      C1397   1.522       .  S
C1393      C1394   1.406       .  A
C1393      H1398   1.083       .  S
C1394      C1395   1.417       .  A
C1395      C1396   1.409       .  A
C1395      C1399   1.517       .  S
C1396      H1400   1.083       .  S
C1397      F1410   1.384       .  S
C1397      F1411   1.382       .  S
C1397      F1412   1.383       .  S
C1399      F1407   1.383       .  S
C1399      F1408   1.382       .  S
C1399      F1409   1.385       .  S
C1413      C1414   1.403       .  A
C1413      C1418   1.408       .  A
C1413      H1423   1.083       .  S
C1414      C1419   1.487       .  S
C1414      C1415   1.416       .  A
C1415      C1416   1.407       .  A
C1415      C1420   1.520       .  S
C1416      C1417   1.406       .  A
C1416      H1421   1.083       .  S
C1417      C1418   1.418       .  A
C1418      C1422   1.519       .  S
C1419      C1424   1.419       .  A
C1419      C1428   1.398       .  A
C1420      F1436   1.382       .  S
C1420      F1437   1.383       .  S
C1420      F1438   1.384       .  S
C1422      F1433   1.384       .  S
C1422      F1434   1.381       .  S
C1422      F1435   1.384       .  S
C1424      C1425   1.411       .  A
C1424      C1429   1.519       .  S
C1425      C1426   1.403       .  A
C1425      H1430   1.083       .  S
C1426      C1427   1.423       .  A
C1427      C1428   1.405       .  A
C1427      C1431   1.523       .  S
C1428      H1432   1.083       .  S
C1429      F1442   1.384       .  S
C1429      F1443   1.382       .  S
C1429      F1444   1.382       .  S
C1431      F1439   1.385       .  S
C1431      F1440   1.384       .  S
C1431      F1441   1.382       .  S
C1445      C1446   1.403       .  A
C1445      C1450   1.410       .  A
C1445      H1455   1.083       .  S
C1446      C1451   1.487       .  S
C1446      C1447   1.417       .  A
C1447      C1448   1.407       .  A
C1447      C1452   1.520       .  S
C1448      C1449   1.402       .  A
C1448      H1453   1.083       .  S
C1449      C1450   1.419       .  A
C1450      C1454   1.519   1_545  S
C1451      C1456   1.413       .  A
C1451      C1460   1.405       .  A
C1452      F1468   1.382       .  S
C1452      F1469   1.382       .  S
C1452      F1470   1.384       .  S
C1454      F1465   1.385       .  S
C1454      F1466   1.381       .  S
C1454      F1467   1.383       .  S
C1456      C1457   1.403       .  A
C1456      C1461   1.521       .  S
C1457      C1458   1.408       .  A
C1457      H1462   1.083       .  S
C1458      C1459   1.418       .  A
C1459      C1460   1.413       .  A
C1459      C1463   1.517       .  S
C1460      H1464   1.083       .  S
C1461      F1474   1.385       .  S
C1461      F1475   1.382       .  S
C1461      F1476   1.382       .  S
C1463      F1471   1.383       .  S
C1463      F1472   1.384       .  S
C1463      F1473   1.384       .  S
C1477      C1478   1.403       .  A
C1477      C1482   1.413       .  A
C1477      H1487   1.083       .  S
C1478      C1483   1.500       .  S
C1478      C1479   1.417       .  A
C1479      C1480   1.413       .  A
C1479      C1484   1.520       .  S
C1480      C1481   1.411       .  A
C1480      H1485   1.082       .  S
C1481      C1482   1.425       .  A
C1482      C1486   1.520       .  S
C1483      C1488   1.421       .  A
C1483      C1492   1.403       .  A
C1484      F1500   1.382       .  S
C1484      F1501   1.383       .  S
C1484      F1502   1.384       .  S
C1486      F1497   1.383       .  S
C1486      F1498   1.385       .  S
C1486      F1499   1.383       .  S
C1488      C1489   1.414       .  A
C1488      C1493   1.519       .  S
C1489      C1490   1.404       .  A
C1489      H1494   1.083       .  S
C1490      C1491   1.420       .  A
C1491      C1492   1.410       .  A
C1491      C1495   1.519   1_565  S
C1492      H1496   1.083       .  S
C1493      F1506   1.385       .  S
C1493      F1507   1.381       .  S
C1493      F1508   1.383       .  S
C1495      F1503   1.381       .  S
C1495      F1504   1.384       .  S
C1495      F1505   1.385       .  S
C1509      C1510   1.406       .  A
C1509      C1514   1.411       .  A
C1509      H1519   1.083       .  S
C1510      C1515   1.491       .  S
C1510      C1511   1.417       .  A
C1511      C1512   1.407       .  A
C1511      C1516   1.519       .  S
C1512      C1513   1.402       .  A
C1512      H1517   1.084       .  S
C1513      C1514   1.415       .  A
C1514      C1518   1.517       .  S
C1515      C1520   1.416       .  A
C1515      C1524   1.408       .  A
C1516      F1532   1.382       .  S
C1516      F1533   1.383       .  S
C1516      F1534   1.384       .  S
C1518      F1529   1.385       .  S
C1518      F1530   1.383   1_554  S
C1518      F1531   1.383       .  S
C1520      C1521   1.405       .  A
C1520      C1525   1.520       .  S
C1521      C1522   1.402       .  A
C1521      H1526   1.084       .  S
C1522      C1523   1.412       .  A
C1523      C1524   1.413       .  A
C1523      C1527   1.514       .  S
C1524      H1528   1.083       .  S
C1525      F1538   1.385       .  S
C1525      F1539   1.382       .  S
C1525      F1540   1.383       .  S
C1527      F1535   1.385       .  S
C1527      F1536   1.383       .  S
C1527      F1537   1.383       .  S
C1541      C1542   1.402       .  A
C1541      C1546   1.406       .  A
C1541      H1551   1.083       .  S
C1542      C1547   1.486       .  S
C1542      C1543   1.418       .  A
C1543      C1544   1.408       .  A
C1543      C1548   1.520       .  S
C1544      C1545   1.402       .  A
C1544      H1549   1.083       .  S
C1545      C1546   1.417       .  A
C1546      C1550   1.520   1_556  S
C1547      C1552   1.416       .  A
C1547      C1556   1.404       .  A
C1548      F1564   1.382       .  S
C1548      F1565   1.382       .  S
C1548      F1566   1.385       .  S
C1550      F1561   1.383       .  S
C1550      F1562   1.384       .  S
C1550      F1563   1.381       .  S
C1552      C1553   1.408       .  A
C1552      C1557   1.521       .  S
C1553      C1554   1.406       .  A
C1553      H1558   1.083       .  S
C1554      C1555   1.416       .  A
C1555      C1556   1.408       .  A
C1555      C1559   1.517       .  S
C1556      H1560   1.084       .  S
C1557      F1570   1.385       .  S
C1557      F1571   1.382       .  S
C1557      F1572   1.382       .  S
C1559      F1567   1.383       .  S
C1559      F1568   1.382       .  S
C1559      F1569   1.385       .  S
C1573      C1574   1.407       .  A
C1573      C1578   1.416       .  A
C1573      H1583   1.083       .  S
C1574      C1579   1.489       .  S
C1574      C1575   1.412       .  A
C1575      C1576   1.402       .  A
C1575      C1580   1.523       .  S
C1576      C1577   1.412       .  A
C1576      H1581   1.082       .  S
C1577      C1578   1.420       .  A
C1578      C1582   1.516       .  S
C1579      C1584   1.415       .  A
C1579      C1588   1.404       .  A
C1580      F1596   1.382       .  S
C1580      F1597   1.382       .  S
C1580      F1598   1.385       .  S
C1582      F1593   1.385       .  S
C1582      F1594   1.383       .  S
C1582      F1595   1.383       .  S
C1584      C1585   1.408       .  A
C1584      C1589   1.519       .  S
C1585      C1586   1.406       .  A
C1585      H1590   1.083   1_565  S
C1586      C1587   1.418       .  A
C1587      C1588   1.410       .  A
C1587      C1591   1.518       .  S
C1588      H1592   1.083       .  S
C1589      F1602   1.384   1_565  S
C1589      F1603   1.382       .  S
C1589      F1604   1.382       .  S
C1591      F1599   1.383   1_554  S
C1591      F1600   1.381       .  S
C1591      F1601   1.384       .  S
C1605      C1606   1.404       .  A
C1605      C1610   1.407       .  A
C1605      H1615   1.083       .  S
C1606      C1611   1.483       .  S
C1606      C1607   1.415       .  A
C1607      C1608   1.406       .  A
C1607      C1612   1.520       .  S
C1608      C1609   1.404       .  A
C1608      H1613   1.083   1_556  S
C1609      C1610   1.415       .  A
C1610      C1614   1.518       .  S
C1611      C1616   1.418       .  A
C1611      C1620   1.397       .  A
C1612      F1628   1.382       .  S
C1612      F1629   1.382       .  S
C1612      F1630   1.384   1_556  S
C1614      F1625   1.385       .  S
C1614      F1626   1.382       .  S
C1614      F1627   1.383   1_545  S
C1616      C1617   1.410       .  A
C1616      C1621   1.518       .  S
C1617      C1618   1.403       .  A
C1617      H1622   1.083       .  S
C1618      C1619   1.425       .  A
C1619      C1620   1.401       .  A
C1619      C1623   1.524       .  S
C1620      H1624   1.083       .  S
C1621      F1634   1.384       .  S
C1621      F1635   1.382       .  S
C1621      F1636   1.382       .  S
C1623      F1631   1.383       .  S
C1623      F1632   1.384       .  S
C1623      F1633   1.385       .  S
C1637      C1638   1.405       .  A
C1637      C1642   1.411       .  A
C1637      H1647   1.083       .  S
C1638      C1643   1.490       .  S
C1638      C1639   1.417       .  A
C1639      C1640   1.407       .  A
C1639      C1644   1.520       .  S
C1640      C1641   1.402       .  A
C1640      H1645   1.083       .  S
C1641      C1642   1.415       .  A
C1642      C1646   1.516       .  S
C1643      C1648   1.419       .  A
C1643      C1652   1.401       .  A
C1644      F1660   1.382       .  S
C1644      F1661   1.382       .  S
C1644      F1662   1.384       .  S
C1646      F1657   1.384       .  S
C1646      F1658   1.383       .  S
C1646      F1659   1.383       .  S
C1648      C1649   1.412       .  A
C1648      C1653   1.518       .  S
C1649      C1650   1.401       .  A
C1649      H1654   1.083       .  S
C1650      C1651   1.418       .  A
C1651      C1652   1.407       .  A
C1651      C1655   1.520       .  S
C1652      H1656   1.083       .  S
C1653      F1666   1.384       .  S
C1653      F1667   1.382       .  S
C1653      F1668   1.382       .  S
C1655      F1663   1.385       .  S
C1655      F1664   1.383       .  S
C1655      F1665   1.383       .  S
C1669      C1670   1.400       .  A
C1669      C1674   1.409       .  A
C1669      H1679   1.084       .  S
C1670      C1675   1.497       .  S
C1670      C1671   1.419       .  A
C1671      C1672   1.415       .  A
C1671      C1676   1.519       .  S
C1672      C1673   1.407       .  A
C1672      H1677   1.083       .  S
C1673      C1674   1.426       .  A
C1674      C1678   1.519       .  S
C1675      C1680   1.419       .  A
C1675      C1684   1.401       .  A
C1676      F1692   1.383       .  S
C1676      F1693   1.382       .  S
C1676      F1694   1.384       .  S
C1678      F1689   1.383       .  S
C1678      F1690   1.384       .  S
C1678      F1691   1.383       .  S
C1680      C1681   1.416       .  A
C1680      C1685   1.517       .  S
C1681      C1682   1.404       .  A
C1681      H1686   1.082       .  S
C1682      C1683   1.422       .  A
C1683      C1684   1.409       .  A
C1683      C1687   1.519       .  S
C1684      H1688   1.083       .  S
C1685      F1698   1.384       .  S
C1685      F1699   1.383       .  S
C1685      F1700   1.382       .  S
C1687      F1695   1.385       .  S
C1687      F1696   1.384       .  S
C1687      F1697   1.382       .  S
C1701      C1702   1.407       .  A
C1701      C1706   1.411       .  A
C1701      H1711   1.083       .  S
C1702      C1707   1.489       .  S
C1702      C1703   1.416       .  A
C1703      C1704   1.407       .  A
C1703      C1708   1.520       .  S
C1704      C1705   1.405       .  A
C1704      H1709   1.083       .  S
C1705      C1706   1.412       .  A
C1706      C1710   1.514       .  S
C1707      C1712   1.417       .  A
C1707      C1716   1.403       .  A
C1708      F1724   1.382       .  S
C1708      F1725   1.382       .  S
C1708      F1726   1.385       .  S
C1710      F1721   1.384       .  S
C1710      F1722   1.382       .  S
C1710      F1723   1.384       .  S
C1712      C1713   1.409       .  A
C1712      C1717   1.519       .  S
C1713      C1714   1.405       .  A
C1713      H1718   1.083       .  S
C1714      C1715   1.417       .  A
C1715      C1716   1.408       .  A
C1715      C1719   1.518       .  S
C1716      H1720   1.083       .  S
C1717      F1730   1.385   1_556  S
C1717      F1731   1.382       .  S
C1717      F1732   1.382       .  S
C1719      F1727   1.385       .  S
C1719      F1728   1.382       .  S
C1719      F1729   1.382       .  S
C1733      C1734   1.399       .  A
C1733      C1738   1.405       .  A
C1733      H1743   1.085       .  S
C1734      C1739   1.485       .  S
C1734      C1735   1.418       .  A
C1735      C1736   1.410       .  A
C1735      C1740   1.520       .  S
C1736      C1737   1.405       .  A
C1736      H1741   1.083       .  S
C1737      C1738   1.423       .  A
C1738      C1742   1.518   1_554  S
C1739      C1744   1.417       .  A
C1739      C1748   1.399       .  A
C1740      F1756   1.383       .  S
C1740      F1757   1.381       .  S
C1740      F1758   1.384       .  S
C1742      F1753   1.383       .  S
C1742      F1754   1.384       .  S
C1742      F1755   1.382       .  S
C1744      C1745   1.411       .  A
C1744      C1749   1.518       .  S
C1745      C1746   1.402       .  A
C1745      H1750   1.083       .  S
C1746      C1747   1.421       .  A
C1747      C1748   1.404       .  A
C1747      C1751   1.520       .  S
C1748      H1752   1.083       .  S
C1749      F1762   1.385       .  S
C1749      F1763   1.383       .  S
C1749      F1764   1.381       .  S
C1751      F1759   1.385       .  S
C1751      F1760   1.384       .  S
C1751      F1761   1.382       .  S
C1765      C1766   1.403       .  A
C1765      C1770   1.409       .  A
C1765      H1775   1.083       .  S
C1766      C1771   1.485       .  S
C1766      C1767   1.415       .  A
C1767      C1768   1.405       .  A
C1767      C1772   1.521       .  S
C1768      C1769   1.406       .  A
C1768      H1773   1.083       .  S
C1769      C1770   1.419       .  A
C1770      C1774   1.518       .  S
C1771      C1776   1.417       .  A
C1771      C1780   1.401       .  A
C1772      F1788   1.381       .  S
C1772      F1789   1.383       .  S
C1772      F1790   1.384       .  S
C1774      F1785   1.383       .  S
C1774      F1786   1.385       .  S
C1774      F1787   1.383       .  S
C1776      C1777   1.408       .  A
C1776      C1781   1.520       .  S
C1777      C1778   1.403       .  A
C1777      H1782   1.083       .  S
C1778      C1779   1.419       .  A
C1779      C1780   1.406       .  A
C1779      C1783   1.520       .  S
C1780      H1784   1.083       .  S
C1781      F1794   1.384       .  S
C1781      F1795   1.382       .  S
C1781      F1796   1.383       .  S
C1783      F1791   1.385       .  S
C1783      F1792   1.381       .  S
C1783      F1793   1.383       .  S
C1797      C1798   1.405       .  A
C1797      C1802   1.412       .  A
C1797      H1807   1.083       .  S
C1798      C1803   1.487       .  S
C1798      C1799   1.414       .  A
C1799      C1800   1.404       .  A
C1799      C1804   1.521       .  S
C1800      C1801   1.407       .  A
C1800      H1805   1.084       .  S
C1801      C1802   1.418       .  A
C1802      C1806   1.517       .  S
C1803      C1808   1.418       .  A
C1803      C1812   1.401       .  A
C1804      F1820   1.382       .  S
C1804      F1821   1.383       .  S
C1804      F1822   1.385       .  S
C1806      F1817   1.383       .  S
C1806      F1818   1.385       .  S
C1806      F1819   1.383       .  S
C1808      C1809   1.408       .  A
C1808      C1813   1.520       .  S
C1809      C1810   1.403       .  A
C1809      H1814   1.083       .  S
C1810      C1811   1.420       .  A
C1811      C1812   1.404       .  A
C1811      C1815   1.519       .  S
C1812      H1816   1.085       .  S
C1813      F1826   1.385       .  S
C1813      F1827   1.382       .  S
C1813      F1828   1.383       .  S
C1815      F1823   1.384       .  S
C1815      F1824   1.383       .  S
C1815      F1825   1.382       .  S
C1829      C1830   1.403       .  A
C1829      C1834   1.410       .  A
C1829      H1839   1.083       .  S
C1830      C1835   1.485       .  S
C1830      C1831   1.417       .  A
C1831      C1832   1.405       .  A
C1831      C1836   1.520       .  S
C1832      C1833   1.401       .  A
C1832      H1837   1.083       .  S
C1833      C1834   1.417       .  A
C1834      C1838   1.517       .  S
C1835      C1840   1.416       .  A
C1835      C1844   1.406       .  A
C1836      F1852   1.382       .  S
C1836      F1853   1.383       .  S
C1836      F1854   1.384       .  S
C1838      F1849   1.382       .  S
C1838      F1850   1.385       .  S
C1838      F1851   1.383   1_455  S
C1840      C1841   1.406       .  A
C1840      C1845   1.520       .  S
C1841      C1842   1.403       .  A
C1841      H1846   1.083       .  S
C1842      C1843   1.410       .  A
C1843      C1844   1.408       .  A
C1843      C1847   1.514       .  S
C1844      H1848   1.083       .  S
C1845      F1858   1.385       .  S
C1845      F1859   1.383       .  S
C1845      F1860   1.382       .  S
C1847      F1855   1.384       .  S
C1847      F1856   1.383       .  S
C1847      F1857   1.383       .  S
C1861      C1862   1.404       .  A
C1861      C1866   1.409       .  A
C1861      H1871   1.083       .  S
C1862      C1867   1.488       .  S
C1862      C1863   1.417       .  A
C1863      C1864   1.409       .  A
C1863      C1868   1.519       .  S
C1864      C1865   1.403       .  A
C1864      H1869   1.083   1_556  S
C1865      C1866   1.416       .  A
C1866      C1870   1.518   1_655  S
C1867      C1872   1.416       .  A
C1867      C1876   1.407       .  A
C1868      F1884   1.382       .  S
C1868      F1885   1.381       .  S
C1868      F1886   1.384   1_556  S
C1870      F1881   1.385       .  S
C1870      F1882   1.383       .  S
C1870      F1883   1.383       .  S
C1872      C1873   1.407       .  A
C1872      C1877   1.521       .  S
C1873      C1874   1.404       .  A
C1873      H1878   1.083       .  S
C1874      C1875   1.411       .  A
C1875      C1876   1.411       .  A
C1875      C1879   1.514       .  S
C1876      H1880   1.083       .  S
C1877      F1890   1.385       .  S
C1877      F1891   1.382       .  S
C1877      F1892   1.381       .  S
C1879      F1887   1.384       .  S
C1879      F1888   1.383       .  S
C1879      F1889   1.383       .  S
C1893      C1894   1.399       .  A
C1893      C1898   1.405       .  A
C1893      H1903   1.084       .  S
C1894      C1899   1.485       .  S
C1894      C1895   1.417       .  A
C1895      C1896   1.412       .  A
C1895      C1900   1.519       .  S
C1896      C1897   1.405       .  A
C1896      H1901   1.083       .  S
C1897      C1898   1.422       .  A
C1898      C1902   1.520   1_655  S
C1899      C1904   1.417       .  A
C1899      C1908   1.400       .  A
C1900      F1916   1.382       .  S
C1900      F1917   1.381       .  S
C1900      F1918   1.385       .  S
C1902      F1913   1.379       .  S
C1902      F1914   1.385       .  S
C1902      F1915   1.383       .  S
C1904      C1905   1.410       .  A
C1904      C1909   1.519       .  S
C1905      C1906   1.404       .  A
C1905      H1910   1.083       .  S
C1906      C1907   1.421       .  A
C1907      C1908   1.406       .  A
C1907      C1911   1.521       .  S
C1908      H1912   1.083       .  S
C1909      F1922   1.385       .  S
C1909      F1923   1.382       .  S
C1909      F1924   1.381       .  S
C1911      F1919   1.383       .  S
C1911      F1920   1.383       .  S
C1911      F1921   1.384       .  S
C1925      C1926   1.397       .  A
C1925      C1930   1.400       .  A
C1925      H1935   1.084       .  S
C1926      C1931   1.484       .  S
C1926      C1927   1.419       .  A
C1927      C1928   1.412       .  A
C1927      C1932   1.518       .  S
C1928      C1929   1.402       .  A
C1928      H1933   1.083       .  S
C1929      C1930   1.420       .  A
C1930      C1934   1.520       .  S
C1931      C1936   1.414       .  A
C1931      C1940   1.403       .  A
C1932      F1948   1.382       .  S
C1932      F1949   1.383       .  S
C1932      F1950   1.384       .  S
C1934      F1945   1.384       .  S
C1934      F1946   1.383       .  S
C1934      F1947   1.384       .  S
C1936      C1937   1.404       .  A
C1936      C1941   1.520       .  S
C1937      C1938   1.406       .  A
C1937      H1942   1.082       .  S
C1938      C1939   1.419       .  A
C1939      C1940   1.409       .  A
C1939      C1943   1.520       .  S
C1940      H1944   1.083       .  S
C1941      F1954   1.384       .  S
C1941      F1955   1.382       .  S
C1941      F1956   1.383       .  S
C1943      F1951   1.381       .  S
C1943      F1952   1.383   1_455  S
C1943      F1953   1.384       .  S
C1957      C1958   1.401       .  A
C1957      C1962   1.405       .  A
C1957      H1967   1.083       .  S
C1958      C1963   1.482       .  S
C1958      C1959   1.416       .  A
C1959      C1960   1.409       .  A
C1959      C1964   1.519       .  S
C1960      C1961   1.403       .  A
C1960      H1965   1.083       .  S
C1961      C1962   1.415       .  A
C1962      C1966   1.517       .  S
C1963      C1968   1.419       .  A
C1963      C1972   1.400       .  A
C1964      F1980   1.383       .  S
C1964      F1981   1.382       .  S
C1964      F1982   1.385   1_655  S
C1966      F1977   1.385       .  S
C1966      F1978   1.383       .  S
C1966      F1979   1.383   1_554  S
C1968      C1969   1.409       .  A
C1968      C1973   1.518       .  S
C1969      C1970   1.399       .  A
C1969      H1974   1.083       .  S
C1970      C1971   1.417       .  A
C1971      C1972   1.404       .  A
C1971      C1975   1.521       .  S
C1972      H1976   1.083       .  S
C1973      F1986   1.384       .  S
C1973      F1987   1.382       .  S
C1973      F1988   1.382       .  S
C1975      F1983   1.383       .  S
C1975      F1984   1.383       .  S
C1975      F1985   1.385       .  S
C1989      C1990   1.398       .  A
C1989      C1994   1.402       .  A
C1989      H1999   1.084       .  S
C1990      C1995   1.489       .  S
C1990      C1991   1.420       .  A
C1991      C1992   1.414       .  A
C1991      C1996   1.518       .  S
C1992      C1993   1.405       .  A
C1992      H1997   1.083       .  S
C1993      C1994   1.421       .  A
C1994      C1998   1.519       .  S
C1995      C2000   1.417       .  A
C1995      C2004   1.405       .  A
C1996      F2012   1.382       .  S
C1996      F2013   1.383       .  S
C1996      F2014   1.384       .  S
C1998      F2009   1.385       .  S
C1998      F2010   1.383       .  S
C1998      F2011   1.384       .  S
C2000      C2001   1.408       .  A
C2000      C2005   1.520       .  S
C2001      C2002   1.405       .  A
C2001      H2006   1.083   1_455  S
C2002      C2003   1.415       .  A
C2003      C2004   1.409       .  A
C2003      C2007   1.518       .  S
C2004      H2008   1.083       .  S
C2005      F2018   1.385   1_455  S
C2005      F2019   1.381       .  S
C2005      F2020   1.382       .  S
C2007      F2015   1.381       .  S
C2007      F2016   1.384   1_556  S
C2007      F2017   1.384       .  S
C2021      C2022   1.405       .  A
C2021      C2026   1.408       .  A
C2021      H2031   1.084       .  S
C2022      C2027   1.484       .  S
C2022      C2023   1.413       .  A
C2023      C2024   1.403       .  A
C2023      C2028   1.521       .  S
C2024      C2025   1.406       .  A
C2024      H2029   1.084       .  S
C2025      C2026   1.417       .  A
C2026      C2030   1.518       .  S
C2027      C2032   1.415       .  A
C2027      C2036   1.403       .  A
C2028      F2044   1.382       .  S
C2028      F2045   1.382       .  S
C2028      F2046   1.385       .  S
C2030      F2041   1.384       .  S
C2030      F2042   1.383       .  S
C2030      F2043   1.381       .  S
C2032      C2033   1.404       .  A
C2032      C2037   1.521       .  S
C2033      C2034   1.406       .  A
C2033      H2038   1.083       .  S
C2034      C2035   1.419       .  A
C2035      C2036   1.410       .  A
C2035      C2039   1.518       .  S
C2036      H2040   1.083       .  S
C2037      F2050   1.385       .  S
C2037      F2051   1.382       .  S
C2037      F2052   1.382       .  S
C2039      F2047   1.383       .  S
C2039      F2048   1.381       .  S
C2039      F2049   1.385       .  S
C2053      C2054   1.405       .  A
C2053      C2058   1.412       .  A
C2053      H2063   1.083       .  S
C2054      C2059   1.491       .  S
C2054      C2055   1.416       .  A
C2055      C2056   1.407       .  A
C2055      C2060   1.520       .  S
C2056      C2057   1.405       .  A
C2056      H2061   1.083       .  S
C2057      C2058   1.418       .  A
C2058      C2062   1.518       .  S
C2059      C2064   1.417       .  A
C2059      C2068   1.400       .  A
C2060      F2076   1.382       .  S
C2060      F2077   1.382       .  S
C2060      F2078   1.385       .  S
C2062      F2073   1.385       .  S
C2062      F2074   1.381       .  S
C2062      F2075   1.383   1_655  S
C2064      C2065   1.411       .  A
C2064      C2069   1.519       .  S
C2065      C2066   1.405       .  A
C2065      H2070   1.083       .  S
C2066      C2067   1.423       .  A
C2067      C2068   1.408       .  A
C2067      C2071   1.521       .  S
C2068      H2072   1.083       .  S
C2069      F2082   1.384       .  S
C2069      F2083   1.382       .  S
C2069      F2084   1.382       .  S
C2071      F2079   1.384       .  S
C2071      F2080   1.382       .  S
C2071      F2081   1.385       .  S
C2085      C2086   1.402       .  A
C2085      C2090   1.406       .  A
C2085      H2095   1.083       .  S
C2086      C2091   1.488       .  S
C2086      C2087   1.419       .  A
C2087      C2088   1.408       .  A
C2087      C2092   1.519       .  S
C2088      C2089   1.402       .  A
C2088      H2093   1.083       .  S
C2089      C2090   1.417       .  A
C2090      C2094   1.519   1_554  S
C2091      C2096   1.416       .  A
C2091      C2100   1.404       .  A
C2092      F2108   1.382       .  S
C2092      F2109   1.382       .  S
C2092      F2110   1.385       .  S
C2094      F2105   1.383       .  S
C2094      F2106   1.385       .  S
C2094      F2107   1.381       .  S
C2096      C2097   1.407       .  A
C2096      C2101   1.521       .  S
C2097      C2098   1.405       .  A
C2097      H2102   1.083       .  S
C2098      C2099   1.418       .  A
C2099      C2100   1.410       .  A
C2099      C2103   1.518       .  S
C2100      H2104   1.083       .  S
C2101      F2114   1.384       .  S
C2101      F2115   1.382       .  S
C2101      F2116   1.383       .  S
C2103      F2111   1.385       .  S
C2103      F2112   1.383       .  S
C2103      F2113   1.382       .  S
C2117      C2118   1.404       .  A
C2117      C2122   1.407       .  A
C2117      H2127   1.083       .  S
C2118      C2123   1.486       .  S
C2118      C2119   1.416       .  A
C2119      C2120   1.407       .  A
C2119      C2124   1.519       .  S
C2120      C2121   1.404       .  A
C2120      H2125   1.083   1_556  S
C2121      C2122   1.416       .  A
C2122      C2126   1.518       .  S
C2123      C2128   1.418       .  A
C2123      C2132   1.396       .  A
C2124      F2140   1.382       .  S
C2124      F2141   1.382       .  S
C2124      F2142   1.385   1_556  S
C2126      F2137   1.385       .  S
C2126      F2138   1.382       .  S
C2126      F2139   1.383       .  S
C2128      C2129   1.412       .  A
C2128      C2133   1.518       .  S
C2129      C2130   1.403       .  A
C2129      H2134   1.083       .  S
C2130      C2131   1.426       .  A
C2131      C2132   1.402       .  A
C2131      C2135   1.523       .  S
C2132      H2136   1.084       .  S
C2133      F2146   1.384       .  S
C2133      F2147   1.382       .  S
C2133      F2148   1.382       .  S
C2135      F2143   1.383       .  S
C2135      F2144   1.384       .  S
C2135      F2145   1.385       .  S
C2149      C2150   1.403       .  A
C2149      C2154   1.408       .  A
C2149      H2159   1.083       .  S
C2150      C2155   1.491       .  S
C2150      C2151   1.419       .  A
C2151      C2152   1.411       .  A
C2151      C2156   1.519       .  S
C2152      C2153   1.403       .  A
C2152      H2157   1.083       .  S
C2153      C2154   1.415       .  A
C2154      C2158   1.517       .  S
C2155      C2160   1.420       .  A
C2155      C2164   1.401       .  A
C2156      F2172   1.382       .  S
C2156      F2173   1.382       .  S
C2156      F2174   1.385       .  S
C2158      F2169   1.382       .  S
C2158      F2170   1.384       .  S
C2158      F2171   1.383       .  S
C2160      C2161   1.413       .  A
C2160      C2165   1.518       .  S
C2161      C2162   1.402       .  A
C2161      H2166   1.083       .  S
C2162      C2163   1.418       .  A
C2163      C2164   1.407       .  A
C2163      C2167   1.519       .  S
C2164      H2168   1.083       .  S
C2165      F2178   1.384       .  S
C2165      F2179   1.382       .  S
C2165      F2180   1.382       .  S
C2167      F2175   1.383       .  S
C2167      F2176   1.383       .  S
C2167      F2177   1.385       .  S
C2181      C2182   1.402       .  A
C2181      C2186   1.407       .  A
C2181      H2191   1.083       .  S
C2182      C2187   1.488       .  S
C2182      C2183   1.417       .  A
C2183      C2184   1.411       .  A
C2183      C2188   1.519       .  S
C2184      C2185   1.403       .  A
C2184      H2189   1.083   1_554  S
C2185      C2186   1.415       .  A
C2186      C2190   1.518       .  S
C2187      C2192   1.420       .  A
C2187      C2196   1.400       .  A
C2188      F2204   1.383       .  S
C2188      F2205   1.382       .  S
C2188      F2206   1.384       .  S
C2190      F2201   1.384       .  S
C2190      F2202   1.383       .  S
C2190      F2203   1.382       .  S
C2192      C2193   1.412       .  A
C2192      C2197   1.518       .  S
C2193      C2194   1.401       .  A
C2193      H2198   1.083       .  S
C2194      C2195   1.418       .  A
C2195      C2196   1.406       .  A
C2195      C2199   1.520       .  S
C2196      H2200   1.083       .  S
C2197      F2210   1.384       .  S
C2197      F2211   1.382       .  S
C2197      F2212   1.382       .  S
C2199      F2207   1.383       .  S
C2199      F2208   1.383       .  S
C2199      F2209   1.385       .  S
